<?xml version="1.0" encoding="UTF-8"?>

<!-- generated on 2024-07-16 23:02:38 by Eclipse SUMO sumo Version 1.18.0
-->

<configuration xmlns:xsi="http://www.w3.org/2001/XMLSchema-instance" xsi:noNamespaceSchemaLocation="http://sumo.dlr.de/xsd/sumoConfiguration.xsd">

    <input>
        <net-file value="okrezny.net.xml"/>
        <route-files value="okrezny.rou.xml"/>
        <additional-files value="okrezny.add.xml"/>
    </input>

</configuration>
