<?xml version="1.0" encoding="UTF-8"?>

<!-- generated on 2024-08-26 12:26:06 by Eclipse SUMO sumo Version 1.18.0
<configuration xmlns:xsi="http://www.w3.org/2001/XMLSchema-instance" xsi:noNamespaceSchemaLocation="http://sumo.dlr.de/xsd/sumoConfiguration.xsd">

    <input>
        <net-file value="test_flow.net.xml"/>
        <route-files value="test_flow.rou.xml"/>
    </input>

    <output>
        <emission-output value="emissions.xml"/>
    </output>

    <report>
        <no-step-log value="true"/>
    </report>

    <traci_server>
        <remote-port value="57183"/>
    </traci_server>

</configuration>
