<?xml version="1.0" encoding="UTF-8"?>

<!-- generated on 2024-08-17 19:51:21 by Eclipse SUMO netedit Version 1.18.0
<configuration xmlns:xsi="http://www.w3.org/2001/XMLSchema-instance" xsi:noNamespaceSchemaLocation="http://sumo.dlr.de/xsd/neteditConfiguration.xsd">

    <input>
        <sumocfg-file value="C:\DATA\ROB\7SEM\test\praca_In\tmp\_1\choinkaRL\test_flow.sumocfg"/>
        <sumo-net-file value="C:\DATA\ROB\7SEM\test\praca_In\tmp\_1\choinkaRL\test_flow.net.xml"/>
    </input>

    <output>
        <output-file value="C:\DATA\ROB\7SEM\test\praca_In\tmp\_1\choinkaRL\test_flow.net.xml"/>
    </output>

    <processing>
        <geometry.min-radius.fix.railways value="false"/>
        <geometry.max-grade.fix value="false"/>
        <offset.disable-normalization value="true"/>
        <lefthand value="0"/>
    </processing>

    <junctions>
        <no-turnarounds value="true"/>
        <junctions.corner-detail value="5"/>
        <junctions.limit-turn-speed value="5.50"/>
        <rectangular-lane-cut value="0"/>
    </junctions>

    <pedestrian>
        <walkingareas value="0"/>
    </pedestrian>

</configuration>
-->

<net version="1.16" junctionCornerDetail="5" limitTurnSpeed="5.50" xmlns:xsi="http://www.w3.org/2001/XMLSchema-instance" xsi:noNamespaceSchemaLocation="http://sumo.dlr.de/xsd/net_file.xsd">

    <location netOffset="0.00,0.00" convBoundary="-300.00,-200.00,100.00,200.00" origBoundary="-10000000000.00,-10000000000.00,10000000000.00,10000000000.00" projParameter="!"/>

    <edge id=":J1_0" function="internal">
        <lane id=":J1_0_0" index="0" speed="13.89" length="8.52" shape="-101.60,104.07 -101.60,95.55"/>
    </edge>
    <edge id=":J1_1" function="internal">
        <lane id=":J1_1_0" index="0" speed="13.89" length="8.52" shape="-98.40,95.55 -98.40,104.07"/>
    </edge>
    <edge id=":J1_2" function="internal">
        <lane id=":J1_2_0" index="0" speed="7.38" length="7.69" shape="-106.13,101.27 -104.15,100.07 -102.73,98.71 -101.88,97.21 -101.60,95.55"/>
    </edge>
    <edge id=":J1_3" function="internal">
        <lane id=":J1_3_0" index="0" speed="6.14" length="10.73" shape="-106.13,101.27 -102.75,100.00 -100.33,100.04 -98.88,101.40 -98.40,104.07"/>
    </edge>
    <edge id=":J2_0" function="internal">
        <lane id=":J2_0_0" index="0" speed="13.89" length="11.58" shape="-101.60,9.18 -101.60,-2.40"/>
    </edge>
    <edge id=":J2_1" function="internal">
        <lane id=":J2_1_0" index="0" speed="5.74" length="9.18" shape="-92.51,5.54 -95.09,4.66 -96.93,4.97 -98.03,6.48 -98.40,9.18"/>
    </edge>
    <edge id=":J2_2" function="internal">
        <lane id=":J2_2_0" index="0" speed="9.25" length="12.47" shape="-92.51,5.54 -96.49,3.33 -99.33,1.28 -101.03,-0.63 -101.60,-2.40"/>
    </edge>
    <edge id=":J2_3" function="internal">
        <lane id=":J2_3_0" index="0" speed="13.89" length="11.58" shape="-98.40,-2.40 -98.40,9.18"/>
    </edge>
    <edge id=":J3_0" function="internal">
        <lane id=":J3_0_0" index="0" speed="6.51" length="9.03" shape="-101.60,-92.80 -101.95,-95.25 -103.00,-97.00 -104.75,-98.05 -107.20,-98.40"/>
    </edge>
    <edge id=":J3_1" function="internal">
        <lane id=":J3_1_0" index="0" speed="13.89" length="14.40" shape="-101.60,-92.80 -101.60,-107.20"/>
    </edge>
    <edge id=":J3_2" function="internal">
        <lane id=":J3_2_0" index="0" speed="8.00" length="4.07" shape="-101.60,-92.80 -101.05,-96.65 -100.96,-96.80"/>
    </edge>
    <edge id=":J3_12" function="internal">
        <lane id=":J3_12_0" index="0" speed="8.00" length="10.13" shape="-100.96,-96.80 -99.40,-99.40 -96.65,-101.05 -92.80,-101.60"/>
    </edge>
    <edge id=":J3_3" function="internal">
        <lane id=":J3_3_0" index="0" speed="6.51" length="9.03" shape="-92.80,-98.40 -95.25,-98.05 -97.00,-97.00 -98.05,-95.25 -98.40,-92.80"/>
    </edge>
    <edge id=":J3_4" function="internal">
        <lane id=":J3_4_0" index="0" speed="13.89" length="14.40" shape="-92.80,-98.40 -107.20,-98.40"/>
    </edge>
    <edge id=":J3_5" function="internal">
        <lane id=":J3_5_0" index="0" speed="8.00" length="4.07" shape="-92.80,-98.40 -96.65,-98.95 -96.80,-99.04"/>
    </edge>
    <edge id=":J3_13" function="internal">
        <lane id=":J3_13_0" index="0" speed="8.00" length="10.13" shape="-96.80,-99.04 -99.40,-100.60 -101.05,-103.35 -101.60,-107.20"/>
    </edge>
    <edge id=":J3_6" function="internal">
        <lane id=":J3_6_0" index="0" speed="6.51" length="9.03" shape="-98.40,-107.20 -98.05,-104.75 -97.00,-103.00 -95.25,-101.95 -92.80,-101.60"/>
    </edge>
    <edge id=":J3_7" function="internal">
        <lane id=":J3_7_0" index="0" speed="13.89" length="14.40" shape="-98.40,-107.20 -98.40,-92.80"/>
    </edge>
    <edge id=":J3_8" function="internal">
        <lane id=":J3_8_0" index="0" speed="8.00" length="4.07" shape="-98.40,-107.20 -98.95,-103.35 -99.04,-103.20"/>
    </edge>
    <edge id=":J3_14" function="internal">
        <lane id=":J3_14_0" index="0" speed="8.00" length="10.13" shape="-99.04,-103.20 -100.60,-100.60 -103.35,-98.95 -107.20,-98.40"/>
    </edge>
    <edge id=":J3_9" function="internal">
        <lane id=":J3_9_0" index="0" speed="6.51" length="9.03" shape="-107.20,-101.60 -104.75,-101.95 -103.00,-103.00 -101.95,-104.75 -101.60,-107.20"/>
    </edge>
    <edge id=":J3_10" function="internal">
        <lane id=":J3_10_0" index="0" speed="13.89" length="14.40" shape="-107.20,-101.60 -92.80,-101.60"/>
    </edge>
    <edge id=":J3_11" function="internal">
        <lane id=":J3_11_0" index="0" speed="8.00" length="4.07" shape="-107.20,-101.60 -103.35,-101.05 -103.20,-100.96"/>
    </edge>
    <edge id=":J3_15" function="internal">
        <lane id=":J3_15_0" index="0" speed="8.00" length="10.13" shape="-103.20,-100.96 -100.60,-99.40 -98.95,-96.65 -98.40,-92.80"/>
    </edge>

    <edge id="-E0" from="J1" to="J0" priority="-1">
        <lane id="-E0_0" index="0" speed="13.89" length="95.93" shape="-98.40,104.07 -98.40,200.00"/>
    </edge>
    <edge id="-E1" from="J2" to="J1" priority="-1">
        <lane id="-E1_0" index="0" speed="13.89" length="86.37" shape="-98.40,9.18 -98.40,95.55"/>
    </edge>
    <edge id="-E2" from="J3" to="J2" priority="-1">
        <lane id="-E2_0" index="0" speed="13.89" length="90.40" shape="-98.40,-92.80 -98.40,-2.40"/>
    </edge>
    <edge id="-E3" from="J4" to="J3" priority="-1">
        <lane id="-E3_0" index="0" speed="13.89" length="92.80" shape="-98.40,-200.00 -98.40,-107.20"/>
    </edge>
    <edge id="-E4" from="J5" to="J3" priority="-1">
        <lane id="-E4_0" index="0" speed="13.89" length="192.80" shape="100.00,-98.40 -92.80,-98.40"/>
    </edge>
    <edge id="-E5" from="J6" to="J3" priority="-1">
        <lane id="-E5_0" index="0" speed="13.89" length="192.80" shape="-300.00,-101.60 -107.20,-101.60"/>
    </edge>
    <edge id="E0" from="J0" to="J1" priority="-1">
        <lane id="E0_0" index="0" speed="13.89" length="95.93" shape="-101.60,200.00 -101.60,104.07"/>
    </edge>
    <edge id="E1" from="J1" to="J2" priority="-1">
        <lane id="E1_0" index="0" speed="13.89" length="86.37" shape="-101.60,95.55 -101.60,9.18"/>
    </edge>
    <edge id="E2" from="J2" to="J3" priority="-1">
        <lane id="E2_0" index="0" speed="13.89" length="90.40" shape="-101.60,-2.40 -101.60,-92.80"/>
    </edge>
    <edge id="E3" from="J3" to="J4" priority="-1">
        <lane id="E3_0" index="0" speed="13.89" length="92.80" shape="-101.60,-107.20 -101.60,-200.00"/>
    </edge>
    <edge id="E4" from="J3" to="J5" priority="-1">
        <lane id="E4_0" index="0" speed="13.89" length="192.80" shape="-92.80,-101.60 100.00,-101.60"/>
    </edge>
    <edge id="E5" from="J3" to="J6" priority="-1">
        <lane id="E5_0" index="0" speed="13.89" length="192.80" shape="-107.20,-98.40 -300.00,-98.40"/>
    </edge>
    <edge id="E6" from="J7" to="J2" priority="-1">
        <lane id="E6_0" index="0" speed="13.89" length="214.43" shape="99.28,101.43 -92.51,5.54"/>
    </edge>
    <edge id="E7" from="J8" to="J1" priority="-1">
        <lane id="E7_0" index="0" speed="13.89" length="217.56" shape="-300.72,198.57 -106.13,101.27"/>
    </edge>

    <tlLogic id="J1" type="static" programID="0" offset="0">
        <phase duration="42" state="GGrr"/>
        <phase duration="3"  state="yyrr"/>
        <phase duration="42" state="rrGG"/>
        <phase duration="3"  state="rryy"/>
    </tlLogic>
    <tlLogic id="J2" type="static" programID="0" offset="0">
        <phase duration="42" state="GrrG"/>
        <phase duration="3"  state="yrry"/>
        <phase duration="42" state="rGGr"/>
        <phase duration="3"  state="ryyr"/>
    </tlLogic>
    <tlLogic id="J3" type="static" programID="0" offset="0">
        <phase duration="42" state="GGgrrrGGgrrr"/>
        <phase duration="3"  state="yyyrrryyyrrr"/>
        <phase duration="42" state="rrrGGgrrrGGg"/>
        <phase duration="3"  state="rrryyyrrryyy"/>
    </tlLogic>

    <junction id="J0" type="dead_end" x="-100.00" y="200.00" incLanes="-E0_0" intLanes="" shape="-100.00,200.00 -96.80,200.00 -100.00,200.00"/>
    <junction id="J1" type="traffic_light" x="-100.00" y="100.00" incLanes="E0_0 -E1_0 E7_0" intLanes=":J1_0_0 :J1_1_0 :J1_2_0 :J1_3_0" shape="-103.20,104.07 -96.80,104.07 -96.80,95.55 -103.20,95.55 -103.60,97.13 -104.11,97.86 -104.82,98.56 -105.73,99.22 -106.84,99.84 -105.41,102.71 -104.18,102.37 -103.75,102.49 -103.45,102.82 -103.26,103.35">
        <request index="0" response="0000" foes="1100" cont="0"/>
        <request index="1" response="0000" foes="1000" cont="0"/>
        <request index="2" response="0001" foes="0001" cont="0"/>
        <request index="3" response="0011" foes="0011" cont="0"/>
    </junction>
    <junction id="J2" type="traffic_light" x="-100.00" y="0.00" incLanes="E1_0 E6_0 -E2_0" intLanes=":J2_0_0 :J2_1_0 :J2_2_0 :J2_3_0" shape="-103.20,9.18 -96.80,9.18 -96.40,7.15 -95.91,6.62 -95.21,6.42 -94.32,6.53 -93.22,6.97 -91.79,4.10 -94.57,2.27 -95.55,1.23 -96.24,0.10 -96.66,-1.11 -96.80,-2.40 -103.20,-2.40">
        <request index="0" response="0000" foes="0100" cont="0"/>
        <request index="1" response="1000" foes="1000" cont="0"/>
        <request index="2" response="1001" foes="1001" cont="0"/>
        <request index="3" response="0000" foes="0110" cont="0"/>
    </junction>
    <junction id="J3" type="traffic_light" x="-100.00" y="-100.00" incLanes="E2_0 -E4_0 -E3_0 -E5_0" intLanes=":J3_0_0 :J3_1_0 :J3_12_0 :J3_3_0 :J3_4_0 :J3_13_0 :J3_6_0 :J3_7_0 :J3_14_0 :J3_9_0 :J3_10_0 :J3_15_0" shape="-103.20,-92.80 -96.80,-92.80 -96.36,-95.02 -95.80,-95.80 -95.02,-96.36 -94.02,-96.69 -92.80,-96.80 -92.80,-103.20 -95.02,-103.64 -95.80,-104.20 -96.36,-104.98 -96.69,-105.98 -96.80,-107.20 -103.20,-107.20 -103.64,-104.98 -104.20,-104.20 -104.98,-103.64 -105.98,-103.31 -107.20,-103.20 -107.20,-96.80 -104.98,-96.36 -104.20,-95.80 -103.64,-95.02 -103.31,-94.02">
        <request index="0"  response="000000000000" foes="000100010000" cont="0"/>
        <request index="1"  response="100000100000" foes="111100110000" cont="0"/>
        <request index="2"  response="100011100000" foes="110111110000" cont="1"/>
        <request index="3"  response="000010000000" foes="100010000000" cont="0"/>
        <request index="4"  response="000110000111" foes="100110000111" cont="0"/>
        <request index="5"  response="111110000110" foes="111110000110" cont="1"/>
        <request index="6"  response="000000000000" foes="010000000100" cont="0"/>
        <request index="7"  response="100000100000" foes="110000111100" cont="0"/>
        <request index="8"  response="100000100111" foes="110000110111" cont="1"/>
        <request index="9"  response="000000000010" foes="000000100010" cont="0"/>
        <request index="10" response="000111000110" foes="000111100110" cont="0"/>
        <request index="11" response="000110011110" foes="000110111110" cont="1"/>
    </junction>
    <junction id="J4" type="dead_end" x="-100.00" y="-200.00" incLanes="E3_0" intLanes="" shape="-100.00,-200.00 -103.20,-200.00 -100.00,-200.00"/>
    <junction id="J5" type="dead_end" x="100.00" y="-100.00" incLanes="E4_0" intLanes="" shape="100.00,-100.00 100.00,-103.20 100.00,-100.00"/>
    <junction id="J6" type="dead_end" x="-300.00" y="-100.00" incLanes="E5_0" intLanes="" shape="-300.00,-100.00 -300.00,-96.80 -300.00,-100.00"/>
    <junction id="J7" type="dead_end" x="100.00" y="100.00" incLanes="" intLanes="" shape="100.00,100.00 98.57,102.86"/>
    <junction id="J8" type="dead_end" x="-300.00" y="200.00" incLanes="" intLanes="" shape="-300.00,200.00 -301.43,197.14"/>

    <junction id=":J3_12_0" type="internal" x="-100.96" y="-96.80" incLanes=":J3_2_0 -E3_0" intLanes=":J3_4_0 :J3_5_0 :J3_6_0 :J3_7_0 :J3_10_0 :J3_11_0"/>
    <junction id=":J3_13_0" type="internal" x="-96.80" y="-99.04" incLanes=":J3_5_0 -E5_0" intLanes=":J3_1_0 :J3_2_0 :J3_7_0 :J3_8_0 :J3_9_0 :J3_10_0"/>
    <junction id=":J3_14_0" type="internal" x="-99.04" y="-103.20" incLanes=":J3_8_0 E2_0" intLanes=":J3_0_0 :J3_1_0 :J3_4_0 :J3_5_0 :J3_10_0 :J3_11_0"/>
    <junction id=":J3_15_0" type="internal" x="-103.20" y="-100.96" incLanes=":J3_11_0 -E4_0" intLanes=":J3_1_0 :J3_2_0 :J3_3_0 :J3_4_0 :J3_7_0 :J3_8_0"/>

    <connection from="-E1" to="-E0" fromLane="0" toLane="0" via=":J1_1_0" tl="J1" linkIndex="1" dir="s" state="O"/>
    <connection from="-E2" to="-E1" fromLane="0" toLane="0" via=":J2_3_0" tl="J2" linkIndex="3" dir="s" state="O"/>
    <connection from="-E3" to="E4" fromLane="0" toLane="0" via=":J3_6_0" tl="J3" linkIndex="6" dir="r" state="O"/>
    <connection from="-E3" to="-E2" fromLane="0" toLane="0" via=":J3_7_0" tl="J3" linkIndex="7" dir="s" state="O"/>
    <connection from="-E3" to="E5" fromLane="0" toLane="0" via=":J3_8_0" tl="J3" linkIndex="8" dir="l" state="o"/>
    <connection from="-E4" to="-E2" fromLane="0" toLane="0" via=":J3_3_0" tl="J3" linkIndex="3" dir="r" state="o"/>
    <connection from="-E4" to="E5" fromLane="0" toLane="0" via=":J3_4_0" tl="J3" linkIndex="4" dir="s" state="o"/>
    <connection from="-E4" to="E3" fromLane="0" toLane="0" via=":J3_5_0" tl="J3" linkIndex="5" dir="l" state="o"/>
    <connection from="-E5" to="E3" fromLane="0" toLane="0" via=":J3_9_0" tl="J3" linkIndex="9" dir="r" state="o"/>
    <connection from="-E5" to="E4" fromLane="0" toLane="0" via=":J3_10_0" tl="J3" linkIndex="10" dir="s" state="o"/>
    <connection from="-E5" to="-E2" fromLane="0" toLane="0" via=":J3_11_0" tl="J3" linkIndex="11" dir="l" state="o"/>
    <connection from="E0" to="E1" fromLane="0" toLane="0" via=":J1_0_0" tl="J1" linkIndex="0" dir="s" state="O"/>
    <connection from="E1" to="E2" fromLane="0" toLane="0" via=":J2_0_0" tl="J2" linkIndex="0" dir="s" state="O"/>
    <connection from="E2" to="E5" fromLane="0" toLane="0" via=":J3_0_0" tl="J3" linkIndex="0" dir="r" state="O"/>
    <connection from="E2" to="E3" fromLane="0" toLane="0" via=":J3_1_0" tl="J3" linkIndex="1" dir="s" state="O"/>
    <connection from="E2" to="E4" fromLane="0" toLane="0" via=":J3_2_0" tl="J3" linkIndex="2" dir="l" state="o"/>
    <connection from="E6" to="-E1" fromLane="0" toLane="0" via=":J2_1_0" tl="J2" linkIndex="1" dir="r" state="o"/>
    <connection from="E6" to="E2" fromLane="0" toLane="0" via=":J2_2_0" tl="J2" linkIndex="2" dir="l" state="o"/>
    <connection from="E7" to="E1" fromLane="0" toLane="0" via=":J1_2_0" tl="J1" linkIndex="2" dir="r" state="o"/>
    <connection from="E7" to="-E0" fromLane="0" toLane="0" via=":J1_3_0" tl="J1" linkIndex="3" dir="l" state="o"/>

    <connection from=":J1_0" to="E1" fromLane="0" toLane="0" dir="s" state="M"/>
    <connection from=":J1_1" to="-E0" fromLane="0" toLane="0" dir="s" state="M"/>
    <connection from=":J1_2" to="E1" fromLane="0" toLane="0" dir="r" state="M"/>
    <connection from=":J1_3" to="-E0" fromLane="0" toLane="0" dir="l" state="M"/>
    <connection from=":J2_0" to="E2" fromLane="0" toLane="0" dir="s" state="M"/>
    <connection from=":J2_1" to="-E1" fromLane="0" toLane="0" dir="r" state="M"/>
    <connection from=":J2_2" to="E2" fromLane="0" toLane="0" dir="l" state="M"/>
    <connection from=":J2_3" to="-E1" fromLane="0" toLane="0" dir="s" state="M"/>
    <connection from=":J3_0" to="E5" fromLane="0" toLane="0" dir="r" state="M"/>
    <connection from=":J3_1" to="E3" fromLane="0" toLane="0" dir="s" state="M"/>
    <connection from=":J3_2" to="E4" fromLane="0" toLane="0" via=":J3_12_0" dir="l" state="m"/>
    <connection from=":J3_12" to="E4" fromLane="0" toLane="0" dir="l" state="M"/>
    <connection from=":J3_3" to="-E2" fromLane="0" toLane="0" dir="r" state="M"/>
    <connection from=":J3_4" to="E5" fromLane="0" toLane="0" dir="s" state="M"/>
    <connection from=":J3_5" to="E3" fromLane="0" toLane="0" via=":J3_13_0" dir="l" state="m"/>
    <connection from=":J3_13" to="E3" fromLane="0" toLane="0" dir="l" state="M"/>
    <connection from=":J3_6" to="E4" fromLane="0" toLane="0" dir="r" state="M"/>
    <connection from=":J3_7" to="-E2" fromLane="0" toLane="0" dir="s" state="M"/>
    <connection from=":J3_8" to="E5" fromLane="0" toLane="0" via=":J3_14_0" dir="l" state="m"/>
    <connection from=":J3_14" to="E5" fromLane="0" toLane="0" dir="l" state="M"/>
    <connection from=":J3_9" to="E3" fromLane="0" toLane="0" dir="r" state="M"/>
    <connection from=":J3_10" to="E4" fromLane="0" toLane="0" dir="s" state="M"/>
    <connection from=":J3_11" to="-E2" fromLane="0" toLane="0" via=":J3_15_0" dir="l" state="m"/>
    <connection from=":J3_15" to="-E2" fromLane="0" toLane="0" dir="l" state="M"/>

</net>
