<?xml version="1.0" encoding="UTF-8"?>

<!-- generated on 2024-08-17 19:43:28 by Eclipse SUMO netedit Version 1.18.0
-->

<routes xmlns:xsi="http://www.w3.org/2001/XMLSchema-instance" xsi:noNamespaceSchemaLocation="http://sumo.dlr.de/xsd/routes_file.xsd">
    <!-- Vehicles, persons and containers (sorted by depart) -->
    <flow id="f_0" begin="0.00" from="-E3" to="-E0" end="1000000.00" probability="0.50"/>
    <flow id="f_1" begin="0.00" from="E0" to="E3" end="1000000.00" probability="0.20"/>
    <flow id="f_2" begin="0.00" from="-E4" to="E5" end="1000000.00" probability="0.01"/>
    <flow id="f_3" begin="0.00" from="-E5" to="E4" end="1000000.00" probability="0.01"/>
    <flow id="f_4" begin="0.00" from="E6" to="E5" end="1000000.00" probability="0.01"/>
    <flow id="f_5" begin="0.00" from="E7" to="E5" end="1000000.00" probability="0.05"/>
    <flow id="f_6" begin="0.00" from="E7" to="E4" end="1000000.00" probability="0.02"/>
</routes>
