<?xml version="1.0" encoding="UTF-8"?>

<!-- generated on 2024-08-13 22:39:14 by Eclipse SUMO sumo Version 1.18.0
-->

<configuration xmlns:xsi="http://www.w3.org/2001/XMLSchema-instance" xsi:noNamespaceSchemaLocation="http://sumo.dlr.de/xsd/sumoConfiguration.xsd">

    <input>
        <net-file value="single-intersection.net.xml"/>
        <route-files value="single-intersection.rou.xml"/>
    </input>

</configuration>
