<?xml version="1.0" encoding="UTF-8"?>

<!-- generated on 2024-08-15 09:14:03 by Eclipse SUMO netedit Version 1.18.0
-->

<routes xmlns:xsi="http://www.w3.org/2001/XMLSchema-instance" xsi:noNamespaceSchemaLocation="http://sumo.dlr.de/xsd/routes_file.xsd">
    <!-- Routes -->
    <route id="route_ns" edges="n_t t_s"/>
    <route id="route_we" edges="w_t t_e"/>
    <!-- Vehicles, persons and containers (sorted by depart) -->
    <flow id="flow_ns" begin="0.00" departLane="best" departPos="base" departSpeed="max" route="route_ns" end="100000.00" probability="0.20"/>
    <flow id="flow_we" begin="0.00" departLane="best" departPos="base" departSpeed="max" route="route_we" end="100000.00" probability="0.50"/>
</routes>
