<?xml version="1.0" encoding="UTF-8"?>

<!-- generated on 2024-08-15 09:14:22 by Eclipse SUMO netedit Version 1.18.0
<configuration xmlns:xsi="http://www.w3.org/2001/XMLSchema-instance" xsi:noNamespaceSchemaLocation="http://sumo.dlr.de/xsd/neteditConfiguration.xsd">

    <input>
        <sumocfg-file value="C:\DATA\ROB\7SEM\test\praca_In\sumo-rl\sumo_rl\nets\SMOK_single-intersection_bezSwiatel\single-intersection.sumocfg"/>
        <route-files value="C:\DATA\ROB\7SEM\test\praca_In\sumo-rl\sumo_rl\nets\SMOK_single-intersection_bezSwiatel\single-intersection.rou.xml"/>
        <sumo-net-file value="C:\DATA\ROB\7SEM\test\praca_In\sumo-rl\sumo_rl\nets\SMOK_single-intersection_bezSwiatel\single-intersection.net.xml"/>
    </input>

    <output>
        <output-file value="C:\DATA\ROB\7SEM\test\praca_In\sumo-rl\sumo_rl\nets\SMOK_single-intersection_bezSwiatel\single-intersection.net.xml"/>
    </output>

    <processing>
        <geometry.min-radius.fix.railways value="false"/>
        <geometry.max-grade.fix value="false"/>
        <offset.disable-normalization value="true"/>
        <lefthand value="0"/>
    </processing>

    <junctions>
        <no-turnarounds value="true"/>
        <junctions.corner-detail value="0"/>
        <junctions.limit-turn-speed value="-1.00"/>
        <rectangular-lane-cut value="0"/>
    </junctions>

    <pedestrian>
        <walkingareas value="0"/>
    </pedestrian>

    <time>
        <begin value="0"/>
        <end value="100000"/>
    </time>

</configuration>
-->

<net version="1.16" xmlns:xsi="http://www.w3.org/2001/XMLSchema-instance" xsi:noNamespaceSchemaLocation="http://sumo.dlr.de/xsd/net_file.xsd">

    <location netOffset="150.00,150.00" convBoundary="0.00,0.00,300.00,300.00" origBoundary="-150.00,-150.00,150.00,150.00" projParameter="!"/>

    <edge id=":t_0" function="internal">
        <lane id=":t_0_0" index="0" speed="13.90" length="14.40" shape="145.20,154.00 145.20,139.60"/>
        <lane id=":t_0_1" index="1" speed="13.90" length="14.40" shape="148.40,154.00 148.40,139.60"/>
    </edge>
    <edge id=":t_2" function="internal">
        <lane id=":t_2_0" index="0" speed="13.90" length="14.40" shape="139.60,145.20 154.00,145.20"/>
        <lane id=":t_2_1" index="1" speed="13.90" length="14.40" shape="139.60,148.40 154.00,148.40"/>
    </edge>

    <edge id="n_t" from="n" to="t" priority="-1">
        <lane id="n_t_0" index="0" speed="13.90" length="146.00" shape="145.20,300.00 145.20,154.00"/>
        <lane id="n_t_1" index="1" speed="13.90" length="146.00" shape="148.40,300.00 148.40,154.00"/>
    </edge>
    <edge id="t_e" from="t" to="e" priority="-1">
        <lane id="t_e_0" index="0" speed="13.90" length="146.00" shape="154.00,145.20 300.00,145.20"/>
        <lane id="t_e_1" index="1" speed="13.90" length="146.00" shape="154.00,148.40 300.00,148.40"/>
    </edge>
    <edge id="t_s" from="t" to="s" priority="-1">
        <lane id="t_s_0" index="0" speed="13.90" length="139.60" shape="145.20,139.60 145.20,0.00"/>
        <lane id="t_s_1" index="1" speed="13.90" length="139.60" shape="148.40,139.60 148.40,0.00"/>
    </edge>
    <edge id="w_t" from="w" to="t" priority="-1">
        <lane id="w_t_0" index="0" speed="13.90" length="139.60" shape="0.00,145.20 139.60,145.20"/>
        <lane id="w_t_1" index="1" speed="13.90" length="139.60" shape="0.00,148.40 139.60,148.40"/>
    </edge>

    <junction id="e" type="dead_end" x="300.00" y="150.00" incLanes="t_e_0 t_e_1" intLanes="" shape="300.00,143.60 300.00,150.00"/>
    <junction id="n" type="dead_end" x="150.00" y="300.00" incLanes="" intLanes="" shape="150.00,300.00 143.60,300.00"/>
    <junction id="s" type="dead_end" x="150.00" y="0.00" incLanes="t_s_0 t_s_1" intLanes="" shape="143.60,0.00 150.00,0.00"/>
    <junction id="t" type="priority" x="150.00" y="150.00" incLanes="n_t_0 n_t_1 w_t_0 w_t_1" intLanes=":t_0_0 :t_0_1 :t_2_0 :t_2_1" shape="143.60,154.00 150.00,154.00 154.00,150.00 154.00,143.60 150.00,139.60 143.60,139.60 139.60,143.60 139.60,150.00">
        <request index="0" response="1100" foes="1100" cont="0"/>
        <request index="1" response="1100" foes="1100" cont="0"/>
        <request index="2" response="0000" foes="0011" cont="0"/>
        <request index="3" response="0000" foes="0011" cont="0"/>
    </junction>
    <junction id="w" type="dead_end" x="0.00" y="150.00" incLanes="" intLanes="" shape="0.00,150.00 0.00,143.60"/>

    <connection from="n_t" to="t_s" fromLane="0" toLane="0" via=":t_0_0" dir="s" state="m"/>
    <connection from="n_t" to="t_s" fromLane="1" toLane="1" via=":t_0_1" dir="s" state="m"/>
    <connection from="w_t" to="t_e" fromLane="0" toLane="0" via=":t_2_0" dir="s" state="M"/>
    <connection from="w_t" to="t_e" fromLane="1" toLane="1" via=":t_2_1" dir="s" state="M"/>

    <connection from=":t_0" to="t_s" fromLane="0" toLane="0" dir="s" state="M"/>
    <connection from=":t_0" to="t_s" fromLane="1" toLane="1" dir="s" state="M"/>
    <connection from=":t_2" to="t_e" fromLane="0" toLane="0" dir="s" state="M"/>
    <connection from=":t_2" to="t_e" fromLane="1" toLane="1" dir="s" state="M"/>

</net>
