<?xml version="1.0" encoding="UTF-8"?>

<!-- generated on 2025-02-04 22:12:13 by Eclipse SUMO netedit Version 1.21.0
-->

<routes xmlns:xsi="http://www.w3.org/2001/XMLSchema-instance" xsi:noNamespaceSchemaLocation="http://sumo.dlr.de/xsd/routes_file.xsd">
    <!-- Vehicles, persons and containers (sorted by depart) -->
    <flow id="f_0" begin="0.00" from="E0" to="E3" end="3600.00" vehsPerHour="1800"/>
    <!--   <flow id="f_1" begin="0.00" from="E4" to="E7" end="3600.00" vehsPerHour="1800"/>
    <flow id="f_10" begin="0.00" from="E20" to="E14" end="3600.00" vehsPerHour="1800"/>
    <flow id="f_11" begin="0.00" from="E0" to="E7" end="3600.00" vehsPerHour="1800"/>
    <flow id="f_12" begin="0.00" from="-E4" to="-E4" end="3600.00" vehsPerHour="1800"/>
    <flow id="f_13" begin="0.00" from="E4" to="E3" end="3600.00" vehsPerHour="1800"/>
    <flow id="f_14" begin="0.00" from="E14" to="E14" end="3600.00" vehsPerHour="1800"/>
    <flow id="f_15" begin="0.00" from="-E7" to="E3" via="-E13" end="3600.00" vehsPerHour="1800"/>
    <flow id="f_16" begin="0.00" from="-E3" to="E22" via="-E2 E1" end="3600.00" vehsPerHour="1800"/>
    <flow id="f_2" begin="0.00" from="-E3" to="-E0" end="3600.00" vehsPerHour="1800"/>
    <flow id="f_3" begin="0.00" from="-E7" to="-E4" end="3600.00" vehsPerHour="1800"/>
    <flow id="f_4" begin="0.00" from="E12" to="E14" end="3600.00" vehsPerHour="1800"/>
    <flow id="f_5" begin="0.00" from="E20" to="E22" end="3600.00" vehsPerHour="1800"/>
    <flow id="f_6" begin="0.00" from="-E14" to="-E12" end="3600.00" vehsPerHour="1800"/>
    <flow id="f_7" begin="0.00" from="-E22" to="-E20" end="3600.00" vehsPerHour="1800"/>
    <flow id="f_8" begin="0.00" from="E12" to="E22" end="3600.00" vehsPerHour="1800"/>
    <flow id="f_9" begin="0.00" from="-E20" to="-E20" end="3600.00" vehsPerHour="1800"/>-->
</routes>
