<?xml version="1.0" encoding="UTF-8"?>

<!-- generated on 2024-08-12 21:07:55 by Eclipse SUMO netedit Version 1.18.0
-->

<routes xmlns:xsi="http://www.w3.org/2001/XMLSchema-instance" xsi:noNamespaceSchemaLocation="http://sumo.dlr.de/xsd/routes_file.xsd">
    
	<vType id="truck" vClass="truck" accel="0.8" decel="4.5" maxSpeed="3" length="12" width="2.5" color="1,0,0"/> 
    <flow id="flow_trucks13"  probability="0.01" from="-E23" to="-E0" via="-E10 -E18 -E5 -E13" type="truck" departLane="free" departSpeed="random"/>
	<flow id="flow_trucks14"  probability="0.01" from="-E15" to="E3" via="E9 -E18 E6 -E21" type="truck" departLane="free" departSpeed="random"/>
	<flow id="flow_trucks0"  probability="0.01" from="E12" to="E11" via="E1 E17 E6 E22" type="truck" departLane="free" departSpeed="random"/>

	
 <!-- Vehicles, persons and containers (sorted by depart) -->
	<flow id="flow_random0" probability="0.1" from="E12" to="E11" via="E1 E17 E6 E22" departLane="free" departSpeed="random"/>
	<flow id="flow_random1"  probability="0.05" from="E0" to="E3" via="E1 E2" departLane="free" departSpeed="random"/>
	<flow id="flow_random10"  probability="0.1" from="E20" to="-E8" via="-E2 E17 -E5 E14" departLane="free" departSpeed="random"/>
	<flow id="flow_random11"  probability="0.05" from="-E3" to="E15" via="E21 -E6 E18 -E9" departLane="free" departSpeed="random"/>
	<flow id="flow_random14"  probability="0.01" from="-E15" to="E3" via="E9 -E18 E6 -E21"  departLane="free" departSpeed="random"/>
	<flow id="flow_random13" begin="0" end="100" probability="0.7" from="-E23" to="-E0" via="-E10 -E18 -E5 -E13" departLane="free" departSpeed="random"/>

    <trip id="t_0" depart="1.00" from="E12" to="E11" via="E1 E17 E6 E22"/>
    <trip id="t_1" depart="2.00" from="E0" to="E3" via="E1 E2"/>
    <trip id="t_10" depart="3.00" from="E20" to="-E8" via="-E2 E17 -E5 E14"/>	
    <trip id="t_11" depart="0.00" from="-E3" to="E15" via="E21 -E6 E18 -E9"/>
	
    <trip id="t_12" depart="0.00" from="-E11" to="-E12" via="-E22 -E6 -E17 -E1"/>
    <trip id="t_13" depart="0.00" from="-E23" to="-E0" via="-E10 -E18 -E5 -E13"/>
    <trip id="t_14" depart="0.00" from="-E15" to="E3" via="E9 -E18 E6 -E21"/>
    <trip id="t_15" depart="0.00" from="E8" to="-E20" via="-E14 E5 -E17 E2"/>
    <trip id="t_16" depart="0.00" from="E16" to="E19" via="E17 E18"/>
    <trip id="t_17" depart="0.00" from="-E19" to="-E16" via="-E18 -E17"/>
    <trip id="t_2" depart="0.00" from="E12" to="E23" via="E13 E5 E18 E10"/>
    <trip id="t_3" depart="0.00" from="E12" to="E19" via="E13 E14 E9"/>
    <trip id="t_4" depart="0.00" from="E4" to="E7" via="E5 E6"/>
    <trip id="t_5" depart="0.00" from="E8" to="E11" via="E9 E10"/>
    <trip id="t_6" depart="0.00" from="E12" to="E15" via="E13 E14"/>
    <trip id="t_7" depart="0.00" from="-E3" to="-E0" via="-E2 -E1"/>
    <trip id="t_8" depart="0.00" from="-E7" to="-E4" via="-E6 -E5"/>
    <trip id="t_9" depart="0.00" from="-E11" to="-E8" via="-E10 -E9"/>
	
	
	
</routes>
