<?xml version="1.0" encoding="UTF-8"?>

<!-- generated on 2024-07-16 18:58:19 by Eclipse SUMO netedit Version 1.20.0
-->

<routes xmlns:xsi="http://www.w3.org/2001/XMLSchema-instance" xsi:noNamespaceSchemaLocation="http://sumo.dlr.de/xsd/routes_file.xsd">
    <!-- Vehicles, persons and containers (sorted by depart) -->
    
	
	
	<trip id="t_0" depart="0.00" from="E0" to="E2"/>
    <trip id="t_1" depart="0.00" from="-E2" to="-E0"/>
    <trip id="t_2" depart="0.00" from="-E3" to="E1"/>
    <trip id="t_3" depart="0.00" from="-E1" to="E3"/>


	<trip id="t_4" depart="0.00" from="-E1" to="E2"/>
    <trip id="t_5" depart="0.00" from="E0" to="E3"/>
	
	
	    <!-- Definiowanie typu pojazdu -->
    <vType id="car0" accel="1.0" decel="0.5" sigma="0.5" length="5.0" maxSpeed="10.0" color="1,0,0"/>
    <vType id="car1" accel="0.1" decel="0.5" sigma="0.5" length="5.0" maxSpeed="70.0" color="0,1,0"/>
	<vType id="car2" accel="1.0" decel="0.5" sigma="0.5" length="5.0" maxSpeed="20.0" color="0,0,1"/>
	
	
	    <!-- Strumień pojazdów -->
    <flow id="f_0" type="car2" begin="0.00" end="3600.00" number="100" from="E0" to="E2"/>
	
	<flow id="f_1" type="car0" begin="0.00" end="3600.00" number="400" from="-E1" to="E2"/>
	<flow id="f_3" type="car0" begin="0.00" end="3600.00" number="400" from="E0" to="E3"/>
	
	<flow id="f_2" type="car1" begin="0.00" end="3600.00" number="100" from="-E2" to="-E0"/>
	
</routes>
