<?xml version="1.0" encoding="UTF-8"?>

<!-- generated on 2024-07-16 17:57:38 by Eclipse SUMO sumo Version 1.20.0
-->

<configuration xmlns:xsi="http://www.w3.org/2001/XMLSchema-instance" xsi:noNamespaceSchemaLocation="http://sumo.dlr.de/xsd/sumoConfiguration.xsd">

    <input>
        <net-file value="01_skrzyzowanieX.net.xml"/>
        <route-files value="01_skrzyzowanieX.rou.xml"/>
    </input>

</configuration>
