<?xml version="1.0" encoding="UTF-8"?>

<!-- generated on 2024-08-12 20:51:45 by Eclipse SUMO netedit Version 1.18.0
<configuration xmlns:xsi="http://www.w3.org/2001/XMLSchema-instance" xsi:noNamespaceSchemaLocation="http://sumo.dlr.de/xsd/neteditConfiguration.xsd">

    <input>
        <sumocfg-file value="C:\DATA\ROB\7SEM\test\praca_In\siatka_3x3\3x3.sumocfg"/>
        <route-files value="C:\DATA\ROB\7SEM\test\praca_In\siatka_3x3\3x3.rou.xml"/>
        <sumo-net-file value="C:\DATA\ROB\7SEM\test\praca_In\siatka_3x3\3x3.net.xml"/>
    </input>

    <output>
        <output-file value="C:\DATA\ROB\7SEM\test\praca_In\siatka_3x3\3x3.net.xml"/>
    </output>

    <processing>
        <geometry.min-radius.fix.railways value="false"/>
        <geometry.max-grade.fix value="false"/>
        <offset.disable-normalization value="true"/>
        <lefthand value="0"/>
    </processing>

    <junctions>
        <no-turnarounds value="true"/>
        <junctions.corner-detail value="5"/>
        <junctions.limit-turn-speed value="5.50"/>
        <rectangular-lane-cut value="0"/>
    </junctions>

    <pedestrian>
        <walkingareas value="0"/>
    </pedestrian>

</configuration>
-->

<net version="1.16" junctionCornerDetail="5" limitTurnSpeed="5.50" xmlns:xsi="http://www.w3.org/2001/XMLSchema-instance" xsi:noNamespaceSchemaLocation="http://sumo.dlr.de/xsd/net_file.xsd">

    <location netOffset="0.00,0.00" convBoundary="0.00,-100.00,400.00,300.00" origBoundary="-10000000000.00,-10000000000.00,10000000000.00,10000000000.00" projParameter="!"/>

    <edge id=":J12_0" function="internal">
        <lane id=":J12_0_0" index="0" speed="6.51" length="9.03" shape="98.40,7.20 98.05,4.75 97.00,3.00 95.25,1.95 92.80,1.60"/>
    </edge>
    <edge id=":J12_1" function="internal">
        <lane id=":J12_1_0" index="0" speed="13.89" length="14.40" shape="98.40,7.20 98.40,-7.20"/>
    </edge>
    <edge id=":J12_2" function="internal">
        <lane id=":J12_2_0" index="0" speed="8.00" length="4.07" shape="98.40,7.20 98.95,3.35 99.04,3.20"/>
    </edge>
    <edge id=":J12_12" function="internal">
        <lane id=":J12_12_0" index="0" speed="8.00" length="10.13" shape="99.04,3.20 100.60,0.60 103.35,-1.05 107.20,-1.60"/>
    </edge>
    <edge id=":J12_3" function="internal">
        <lane id=":J12_3_0" index="0" speed="6.51" length="9.03" shape="107.20,1.60 104.75,1.95 103.00,3.00 101.95,4.75 101.60,7.20"/>
    </edge>
    <edge id=":J12_4" function="internal">
        <lane id=":J12_4_0" index="0" speed="13.89" length="14.40" shape="107.20,1.60 92.80,1.60"/>
    </edge>
    <edge id=":J12_5" function="internal">
        <lane id=":J12_5_0" index="0" speed="8.00" length="14.19" shape="107.20,1.60 103.35,1.05 100.60,-0.60 98.95,-3.35 98.40,-7.20"/>
    </edge>
    <edge id=":J12_6" function="internal">
        <lane id=":J12_6_0" index="0" speed="6.51" length="9.03" shape="101.60,-7.20 101.95,-4.75 103.00,-3.00 104.75,-1.95 107.20,-1.60"/>
    </edge>
    <edge id=":J12_7" function="internal">
        <lane id=":J12_7_0" index="0" speed="13.89" length="14.40" shape="101.60,-7.20 101.60,7.20"/>
    </edge>
    <edge id=":J12_8" function="internal">
        <lane id=":J12_8_0" index="0" speed="8.00" length="4.07" shape="101.60,-7.20 101.05,-3.35 100.96,-3.20"/>
    </edge>
    <edge id=":J12_13" function="internal">
        <lane id=":J12_13_0" index="0" speed="8.00" length="10.13" shape="100.96,-3.20 99.40,-0.60 96.65,1.05 92.80,1.60"/>
    </edge>
    <edge id=":J12_9" function="internal">
        <lane id=":J12_9_0" index="0" speed="6.51" length="9.03" shape="92.80,-1.60 95.25,-1.95 97.00,-3.00 98.05,-4.75 98.40,-7.20"/>
    </edge>
    <edge id=":J12_10" function="internal">
        <lane id=":J12_10_0" index="0" speed="13.89" length="14.40" shape="92.80,-1.60 107.20,-1.60"/>
    </edge>
    <edge id=":J12_11" function="internal">
        <lane id=":J12_11_0" index="0" speed="8.00" length="14.19" shape="92.80,-1.60 96.65,-1.05 99.40,0.60 101.05,3.35 101.60,7.20"/>
    </edge>
    <edge id=":J13_0" function="internal">
        <lane id=":J13_0_0" index="0" speed="6.51" length="9.03" shape="198.40,7.20 198.05,4.75 197.00,3.00 195.25,1.95 192.80,1.60"/>
    </edge>
    <edge id=":J13_1" function="internal">
        <lane id=":J13_1_0" index="0" speed="13.89" length="14.40" shape="198.40,7.20 198.40,-7.20"/>
    </edge>
    <edge id=":J13_2" function="internal">
        <lane id=":J13_2_0" index="0" speed="8.00" length="4.07" shape="198.40,7.20 198.95,3.35 199.04,3.20"/>
    </edge>
    <edge id=":J13_12" function="internal">
        <lane id=":J13_12_0" index="0" speed="8.00" length="10.13" shape="199.04,3.20 200.60,0.60 203.35,-1.05 207.20,-1.60"/>
    </edge>
    <edge id=":J13_3" function="internal">
        <lane id=":J13_3_0" index="0" speed="6.51" length="9.03" shape="207.20,1.60 204.75,1.95 203.00,3.00 201.95,4.75 201.60,7.20"/>
    </edge>
    <edge id=":J13_4" function="internal">
        <lane id=":J13_4_0" index="0" speed="13.89" length="14.40" shape="207.20,1.60 192.80,1.60"/>
    </edge>
    <edge id=":J13_5" function="internal">
        <lane id=":J13_5_0" index="0" speed="8.00" length="14.19" shape="207.20,1.60 203.35,1.05 200.60,-0.60 198.95,-3.35 198.40,-7.20"/>
    </edge>
    <edge id=":J13_6" function="internal">
        <lane id=":J13_6_0" index="0" speed="6.51" length="9.03" shape="201.60,-7.20 201.95,-4.75 203.00,-3.00 204.75,-1.95 207.20,-1.60"/>
    </edge>
    <edge id=":J13_7" function="internal">
        <lane id=":J13_7_0" index="0" speed="13.89" length="14.40" shape="201.60,-7.20 201.60,7.20"/>
    </edge>
    <edge id=":J13_8" function="internal">
        <lane id=":J13_8_0" index="0" speed="8.00" length="4.07" shape="201.60,-7.20 201.05,-3.35 200.96,-3.20"/>
    </edge>
    <edge id=":J13_13" function="internal">
        <lane id=":J13_13_0" index="0" speed="8.00" length="10.13" shape="200.96,-3.20 199.40,-0.60 196.65,1.05 192.80,1.60"/>
    </edge>
    <edge id=":J13_9" function="internal">
        <lane id=":J13_9_0" index="0" speed="6.51" length="9.03" shape="192.80,-1.60 195.25,-1.95 197.00,-3.00 198.05,-4.75 198.40,-7.20"/>
    </edge>
    <edge id=":J13_10" function="internal">
        <lane id=":J13_10_0" index="0" speed="13.89" length="14.40" shape="192.80,-1.60 207.20,-1.60"/>
    </edge>
    <edge id=":J13_11" function="internal">
        <lane id=":J13_11_0" index="0" speed="8.00" length="14.19" shape="192.80,-1.60 196.65,-1.05 199.40,0.60 201.05,3.35 201.60,7.20"/>
    </edge>
    <edge id=":J14_0" function="internal">
        <lane id=":J14_0_0" index="0" speed="6.51" length="9.03" shape="298.40,7.20 298.05,4.75 297.00,3.00 295.25,1.95 292.80,1.60"/>
    </edge>
    <edge id=":J14_1" function="internal">
        <lane id=":J14_1_0" index="0" speed="13.89" length="14.40" shape="298.40,7.20 298.40,-7.20"/>
    </edge>
    <edge id=":J14_2" function="internal">
        <lane id=":J14_2_0" index="0" speed="8.00" length="4.07" shape="298.40,7.20 298.95,3.35 299.04,3.20"/>
    </edge>
    <edge id=":J14_12" function="internal">
        <lane id=":J14_12_0" index="0" speed="8.00" length="10.13" shape="299.04,3.20 300.60,0.60 303.35,-1.05 307.20,-1.60"/>
    </edge>
    <edge id=":J14_3" function="internal">
        <lane id=":J14_3_0" index="0" speed="6.51" length="9.03" shape="307.20,1.60 304.75,1.95 303.00,3.00 301.95,4.75 301.60,7.20"/>
    </edge>
    <edge id=":J14_4" function="internal">
        <lane id=":J14_4_0" index="0" speed="13.89" length="14.40" shape="307.20,1.60 292.80,1.60"/>
    </edge>
    <edge id=":J14_5" function="internal">
        <lane id=":J14_5_0" index="0" speed="8.00" length="14.19" shape="307.20,1.60 303.35,1.05 300.60,-0.60 298.95,-3.35 298.40,-7.20"/>
    </edge>
    <edge id=":J14_6" function="internal">
        <lane id=":J14_6_0" index="0" speed="6.51" length="9.03" shape="301.60,-7.20 301.95,-4.75 303.00,-3.00 304.75,-1.95 307.20,-1.60"/>
    </edge>
    <edge id=":J14_7" function="internal">
        <lane id=":J14_7_0" index="0" speed="13.89" length="14.40" shape="301.60,-7.20 301.60,7.20"/>
    </edge>
    <edge id=":J14_8" function="internal">
        <lane id=":J14_8_0" index="0" speed="8.00" length="4.07" shape="301.60,-7.20 301.05,-3.35 300.96,-3.20"/>
    </edge>
    <edge id=":J14_13" function="internal">
        <lane id=":J14_13_0" index="0" speed="8.00" length="10.13" shape="300.96,-3.20 299.40,-0.60 296.65,1.05 292.80,1.60"/>
    </edge>
    <edge id=":J14_9" function="internal">
        <lane id=":J14_9_0" index="0" speed="6.51" length="9.03" shape="292.80,-1.60 295.25,-1.95 297.00,-3.00 298.05,-4.75 298.40,-7.20"/>
    </edge>
    <edge id=":J14_10" function="internal">
        <lane id=":J14_10_0" index="0" speed="13.89" length="14.40" shape="292.80,-1.60 307.20,-1.60"/>
    </edge>
    <edge id=":J14_11" function="internal">
        <lane id=":J14_11_0" index="0" speed="8.00" length="14.19" shape="292.80,-1.60 296.65,-1.05 299.40,0.60 301.05,3.35 301.60,7.20"/>
    </edge>
    <edge id=":J2_0" function="internal">
        <lane id=":J2_0_0" index="0" speed="6.51" length="9.03" shape="98.40,207.20 98.05,204.75 97.00,203.00 95.25,201.95 92.80,201.60"/>
    </edge>
    <edge id=":J2_1" function="internal">
        <lane id=":J2_1_0" index="0" speed="13.89" length="14.40" shape="98.40,207.20 98.40,192.80"/>
    </edge>
    <edge id=":J2_2" function="internal">
        <lane id=":J2_2_0" index="0" speed="8.00" length="4.07" shape="98.40,207.20 98.95,203.35 99.04,203.20"/>
    </edge>
    <edge id=":J2_12" function="internal">
        <lane id=":J2_12_0" index="0" speed="8.00" length="10.13" shape="99.04,203.20 100.60,200.60 103.35,198.95 107.20,198.40"/>
    </edge>
    <edge id=":J2_3" function="internal">
        <lane id=":J2_3_0" index="0" speed="6.51" length="9.03" shape="107.20,201.60 104.75,201.95 103.00,203.00 101.95,204.75 101.60,207.20"/>
    </edge>
    <edge id=":J2_4" function="internal">
        <lane id=":J2_4_0" index="0" speed="13.89" length="14.40" shape="107.20,201.60 92.80,201.60"/>
    </edge>
    <edge id=":J2_5" function="internal">
        <lane id=":J2_5_0" index="0" speed="8.00" length="14.19" shape="107.20,201.60 103.35,201.05 100.60,199.40 98.95,196.65 98.40,192.80"/>
    </edge>
    <edge id=":J2_6" function="internal">
        <lane id=":J2_6_0" index="0" speed="6.51" length="9.03" shape="101.60,192.80 101.95,195.25 103.00,197.00 104.75,198.05 107.20,198.40"/>
    </edge>
    <edge id=":J2_7" function="internal">
        <lane id=":J2_7_0" index="0" speed="13.89" length="14.40" shape="101.60,192.80 101.60,207.20"/>
    </edge>
    <edge id=":J2_8" function="internal">
        <lane id=":J2_8_0" index="0" speed="8.00" length="4.07" shape="101.60,192.80 101.05,196.65 100.96,196.80"/>
    </edge>
    <edge id=":J2_13" function="internal">
        <lane id=":J2_13_0" index="0" speed="8.00" length="10.13" shape="100.96,196.80 99.40,199.40 96.65,201.05 92.80,201.60"/>
    </edge>
    <edge id=":J2_9" function="internal">
        <lane id=":J2_9_0" index="0" speed="6.51" length="9.03" shape="92.80,198.40 95.25,198.05 97.00,197.00 98.05,195.25 98.40,192.80"/>
    </edge>
    <edge id=":J2_10" function="internal">
        <lane id=":J2_10_0" index="0" speed="13.89" length="14.40" shape="92.80,198.40 107.20,198.40"/>
    </edge>
    <edge id=":J2_11" function="internal">
        <lane id=":J2_11_0" index="0" speed="8.00" length="14.19" shape="92.80,198.40 96.65,198.95 99.40,200.60 101.05,203.35 101.60,207.20"/>
    </edge>
    <edge id=":J3_0" function="internal">
        <lane id=":J3_0_0" index="0" speed="6.51" length="9.03" shape="198.40,207.20 198.05,204.75 197.00,203.00 195.25,201.95 192.80,201.60"/>
    </edge>
    <edge id=":J3_1" function="internal">
        <lane id=":J3_1_0" index="0" speed="13.89" length="14.40" shape="198.40,207.20 198.40,192.80"/>
    </edge>
    <edge id=":J3_2" function="internal">
        <lane id=":J3_2_0" index="0" speed="8.00" length="4.07" shape="198.40,207.20 198.95,203.35 199.04,203.20"/>
    </edge>
    <edge id=":J3_12" function="internal">
        <lane id=":J3_12_0" index="0" speed="8.00" length="10.13" shape="199.04,203.20 200.60,200.60 203.35,198.95 207.20,198.40"/>
    </edge>
    <edge id=":J3_3" function="internal">
        <lane id=":J3_3_0" index="0" speed="6.51" length="9.03" shape="207.20,201.60 204.75,201.95 203.00,203.00 201.95,204.75 201.60,207.20"/>
    </edge>
    <edge id=":J3_4" function="internal">
        <lane id=":J3_4_0" index="0" speed="13.89" length="14.40" shape="207.20,201.60 192.80,201.60"/>
    </edge>
    <edge id=":J3_5" function="internal">
        <lane id=":J3_5_0" index="0" speed="8.00" length="14.19" shape="207.20,201.60 203.35,201.05 200.60,199.40 198.95,196.65 198.40,192.80"/>
    </edge>
    <edge id=":J3_6" function="internal">
        <lane id=":J3_6_0" index="0" speed="6.51" length="9.03" shape="201.60,192.80 201.95,195.25 203.00,197.00 204.75,198.05 207.20,198.40"/>
    </edge>
    <edge id=":J3_7" function="internal">
        <lane id=":J3_7_0" index="0" speed="13.89" length="14.40" shape="201.60,192.80 201.60,207.20"/>
    </edge>
    <edge id=":J3_8" function="internal">
        <lane id=":J3_8_0" index="0" speed="8.00" length="4.07" shape="201.60,192.80 201.05,196.65 200.96,196.80"/>
    </edge>
    <edge id=":J3_13" function="internal">
        <lane id=":J3_13_0" index="0" speed="8.00" length="10.13" shape="200.96,196.80 199.40,199.40 196.65,201.05 192.80,201.60"/>
    </edge>
    <edge id=":J3_9" function="internal">
        <lane id=":J3_9_0" index="0" speed="6.51" length="9.03" shape="192.80,198.40 195.25,198.05 197.00,197.00 198.05,195.25 198.40,192.80"/>
    </edge>
    <edge id=":J3_10" function="internal">
        <lane id=":J3_10_0" index="0" speed="13.89" length="14.40" shape="192.80,198.40 207.20,198.40"/>
    </edge>
    <edge id=":J3_11" function="internal">
        <lane id=":J3_11_0" index="0" speed="8.00" length="14.19" shape="192.80,198.40 196.65,198.95 199.40,200.60 201.05,203.35 201.60,207.20"/>
    </edge>
    <edge id=":J4_0" function="internal">
        <lane id=":J4_0_0" index="0" speed="6.51" length="9.03" shape="298.40,207.20 298.05,204.75 297.00,203.00 295.25,201.95 292.80,201.60"/>
    </edge>
    <edge id=":J4_1" function="internal">
        <lane id=":J4_1_0" index="0" speed="13.89" length="14.40" shape="298.40,207.20 298.40,192.80"/>
    </edge>
    <edge id=":J4_2" function="internal">
        <lane id=":J4_2_0" index="0" speed="8.00" length="4.07" shape="298.40,207.20 298.95,203.35 299.04,203.20"/>
    </edge>
    <edge id=":J4_12" function="internal">
        <lane id=":J4_12_0" index="0" speed="8.00" length="10.13" shape="299.04,203.20 300.60,200.60 303.35,198.95 307.20,198.40"/>
    </edge>
    <edge id=":J4_3" function="internal">
        <lane id=":J4_3_0" index="0" speed="6.51" length="9.03" shape="307.20,201.60 304.75,201.95 303.00,203.00 301.95,204.75 301.60,207.20"/>
    </edge>
    <edge id=":J4_4" function="internal">
        <lane id=":J4_4_0" index="0" speed="13.89" length="14.40" shape="307.20,201.60 292.80,201.60"/>
    </edge>
    <edge id=":J4_5" function="internal">
        <lane id=":J4_5_0" index="0" speed="8.00" length="14.19" shape="307.20,201.60 303.35,201.05 300.60,199.40 298.95,196.65 298.40,192.80"/>
    </edge>
    <edge id=":J4_6" function="internal">
        <lane id=":J4_6_0" index="0" speed="6.51" length="9.03" shape="301.60,192.80 301.95,195.25 303.00,197.00 304.75,198.05 307.20,198.40"/>
    </edge>
    <edge id=":J4_7" function="internal">
        <lane id=":J4_7_0" index="0" speed="13.89" length="14.40" shape="301.60,192.80 301.60,207.20"/>
    </edge>
    <edge id=":J4_8" function="internal">
        <lane id=":J4_8_0" index="0" speed="8.00" length="4.07" shape="301.60,192.80 301.05,196.65 300.96,196.80"/>
    </edge>
    <edge id=":J4_13" function="internal">
        <lane id=":J4_13_0" index="0" speed="8.00" length="10.13" shape="300.96,196.80 299.40,199.40 296.65,201.05 292.80,201.60"/>
    </edge>
    <edge id=":J4_9" function="internal">
        <lane id=":J4_9_0" index="0" speed="6.51" length="9.03" shape="292.80,198.40 295.25,198.05 297.00,197.00 298.05,195.25 298.40,192.80"/>
    </edge>
    <edge id=":J4_10" function="internal">
        <lane id=":J4_10_0" index="0" speed="13.89" length="14.40" shape="292.80,198.40 307.20,198.40"/>
    </edge>
    <edge id=":J4_11" function="internal">
        <lane id=":J4_11_0" index="0" speed="8.00" length="14.19" shape="292.80,198.40 296.65,198.95 299.40,200.60 301.05,203.35 301.60,207.20"/>
    </edge>
    <edge id=":J7_0" function="internal">
        <lane id=":J7_0_0" index="0" speed="6.51" length="9.03" shape="98.40,107.20 98.05,104.75 97.00,103.00 95.25,101.95 92.80,101.60"/>
    </edge>
    <edge id=":J7_1" function="internal">
        <lane id=":J7_1_0" index="0" speed="13.89" length="14.40" shape="98.40,107.20 98.40,92.80"/>
    </edge>
    <edge id=":J7_2" function="internal">
        <lane id=":J7_2_0" index="0" speed="8.00" length="4.07" shape="98.40,107.20 98.95,103.35 99.04,103.20"/>
    </edge>
    <edge id=":J7_12" function="internal">
        <lane id=":J7_12_0" index="0" speed="8.00" length="10.13" shape="99.04,103.20 100.60,100.60 103.35,98.95 107.20,98.40"/>
    </edge>
    <edge id=":J7_3" function="internal">
        <lane id=":J7_3_0" index="0" speed="6.51" length="9.03" shape="107.20,101.60 104.75,101.95 103.00,103.00 101.95,104.75 101.60,107.20"/>
    </edge>
    <edge id=":J7_4" function="internal">
        <lane id=":J7_4_0" index="0" speed="13.89" length="14.40" shape="107.20,101.60 92.80,101.60"/>
    </edge>
    <edge id=":J7_5" function="internal">
        <lane id=":J7_5_0" index="0" speed="8.00" length="14.19" shape="107.20,101.60 103.35,101.05 100.60,99.40 98.95,96.65 98.40,92.80"/>
    </edge>
    <edge id=":J7_6" function="internal">
        <lane id=":J7_6_0" index="0" speed="6.51" length="9.03" shape="101.60,92.80 101.95,95.25 103.00,97.00 104.75,98.05 107.20,98.40"/>
    </edge>
    <edge id=":J7_7" function="internal">
        <lane id=":J7_7_0" index="0" speed="13.89" length="14.40" shape="101.60,92.80 101.60,107.20"/>
    </edge>
    <edge id=":J7_8" function="internal">
        <lane id=":J7_8_0" index="0" speed="8.00" length="4.07" shape="101.60,92.80 101.05,96.65 100.96,96.80"/>
    </edge>
    <edge id=":J7_13" function="internal">
        <lane id=":J7_13_0" index="0" speed="8.00" length="10.13" shape="100.96,96.80 99.40,99.40 96.65,101.05 92.80,101.60"/>
    </edge>
    <edge id=":J7_9" function="internal">
        <lane id=":J7_9_0" index="0" speed="6.51" length="9.03" shape="92.80,98.40 95.25,98.05 97.00,97.00 98.05,95.25 98.40,92.80"/>
    </edge>
    <edge id=":J7_10" function="internal">
        <lane id=":J7_10_0" index="0" speed="13.89" length="14.40" shape="92.80,98.40 107.20,98.40"/>
    </edge>
    <edge id=":J7_11" function="internal">
        <lane id=":J7_11_0" index="0" speed="8.00" length="14.19" shape="92.80,98.40 96.65,98.95 99.40,100.60 101.05,103.35 101.60,107.20"/>
    </edge>
    <edge id=":J8_0" function="internal">
        <lane id=":J8_0_0" index="0" speed="6.51" length="9.03" shape="198.40,107.20 198.05,104.75 197.00,103.00 195.25,101.95 192.80,101.60"/>
    </edge>
    <edge id=":J8_1" function="internal">
        <lane id=":J8_1_0" index="0" speed="13.89" length="14.40" shape="198.40,107.20 198.40,92.80"/>
    </edge>
    <edge id=":J8_2" function="internal">
        <lane id=":J8_2_0" index="0" speed="8.00" length="4.07" shape="198.40,107.20 198.95,103.35 199.04,103.20"/>
    </edge>
    <edge id=":J8_12" function="internal">
        <lane id=":J8_12_0" index="0" speed="8.00" length="10.13" shape="199.04,103.20 200.60,100.60 203.35,98.95 207.20,98.40"/>
    </edge>
    <edge id=":J8_3" function="internal">
        <lane id=":J8_3_0" index="0" speed="6.51" length="9.03" shape="207.20,101.60 204.75,101.95 203.00,103.00 201.95,104.75 201.60,107.20"/>
    </edge>
    <edge id=":J8_4" function="internal">
        <lane id=":J8_4_0" index="0" speed="13.89" length="14.40" shape="207.20,101.60 192.80,101.60"/>
    </edge>
    <edge id=":J8_5" function="internal">
        <lane id=":J8_5_0" index="0" speed="8.00" length="14.19" shape="207.20,101.60 203.35,101.05 200.60,99.40 198.95,96.65 198.40,92.80"/>
    </edge>
    <edge id=":J8_6" function="internal">
        <lane id=":J8_6_0" index="0" speed="6.51" length="9.03" shape="201.60,92.80 201.95,95.25 203.00,97.00 204.75,98.05 207.20,98.40"/>
    </edge>
    <edge id=":J8_7" function="internal">
        <lane id=":J8_7_0" index="0" speed="13.89" length="14.40" shape="201.60,92.80 201.60,107.20"/>
    </edge>
    <edge id=":J8_8" function="internal">
        <lane id=":J8_8_0" index="0" speed="8.00" length="4.07" shape="201.60,92.80 201.05,96.65 200.96,96.80"/>
    </edge>
    <edge id=":J8_13" function="internal">
        <lane id=":J8_13_0" index="0" speed="8.00" length="10.13" shape="200.96,96.80 199.40,99.40 196.65,101.05 192.80,101.60"/>
    </edge>
    <edge id=":J8_9" function="internal">
        <lane id=":J8_9_0" index="0" speed="6.51" length="9.03" shape="192.80,98.40 195.25,98.05 197.00,97.00 198.05,95.25 198.40,92.80"/>
    </edge>
    <edge id=":J8_10" function="internal">
        <lane id=":J8_10_0" index="0" speed="13.89" length="14.40" shape="192.80,98.40 207.20,98.40"/>
    </edge>
    <edge id=":J8_11" function="internal">
        <lane id=":J8_11_0" index="0" speed="8.00" length="14.19" shape="192.80,98.40 196.65,98.95 199.40,100.60 201.05,103.35 201.60,107.20"/>
    </edge>
    <edge id=":J9_0" function="internal">
        <lane id=":J9_0_0" index="0" speed="6.51" length="9.03" shape="298.40,107.20 298.05,104.75 297.00,103.00 295.25,101.95 292.80,101.60"/>
    </edge>
    <edge id=":J9_1" function="internal">
        <lane id=":J9_1_0" index="0" speed="13.89" length="14.40" shape="298.40,107.20 298.40,92.80"/>
    </edge>
    <edge id=":J9_2" function="internal">
        <lane id=":J9_2_0" index="0" speed="8.00" length="4.07" shape="298.40,107.20 298.95,103.35 299.04,103.20"/>
    </edge>
    <edge id=":J9_12" function="internal">
        <lane id=":J9_12_0" index="0" speed="8.00" length="10.13" shape="299.04,103.20 300.60,100.60 303.35,98.95 307.20,98.40"/>
    </edge>
    <edge id=":J9_3" function="internal">
        <lane id=":J9_3_0" index="0" speed="6.51" length="9.03" shape="307.20,101.60 304.75,101.95 303.00,103.00 301.95,104.75 301.60,107.20"/>
    </edge>
    <edge id=":J9_4" function="internal">
        <lane id=":J9_4_0" index="0" speed="13.89" length="14.40" shape="307.20,101.60 292.80,101.60"/>
    </edge>
    <edge id=":J9_5" function="internal">
        <lane id=":J9_5_0" index="0" speed="8.00" length="14.19" shape="307.20,101.60 303.35,101.05 300.60,99.40 298.95,96.65 298.40,92.80"/>
    </edge>
    <edge id=":J9_6" function="internal">
        <lane id=":J9_6_0" index="0" speed="6.51" length="9.03" shape="301.60,92.80 301.95,95.25 303.00,97.00 304.75,98.05 307.20,98.40"/>
    </edge>
    <edge id=":J9_7" function="internal">
        <lane id=":J9_7_0" index="0" speed="13.89" length="14.40" shape="301.60,92.80 301.60,107.20"/>
    </edge>
    <edge id=":J9_8" function="internal">
        <lane id=":J9_8_0" index="0" speed="8.00" length="4.07" shape="301.60,92.80 301.05,96.65 300.96,96.80"/>
    </edge>
    <edge id=":J9_13" function="internal">
        <lane id=":J9_13_0" index="0" speed="8.00" length="10.13" shape="300.96,96.80 299.40,99.40 296.65,101.05 292.80,101.60"/>
    </edge>
    <edge id=":J9_9" function="internal">
        <lane id=":J9_9_0" index="0" speed="6.51" length="9.03" shape="292.80,98.40 295.25,98.05 297.00,97.00 298.05,95.25 298.40,92.80"/>
    </edge>
    <edge id=":J9_10" function="internal">
        <lane id=":J9_10_0" index="0" speed="13.89" length="14.40" shape="292.80,98.40 307.20,98.40"/>
    </edge>
    <edge id=":J9_11" function="internal">
        <lane id=":J9_11_0" index="0" speed="8.00" length="14.19" shape="292.80,98.40 296.65,98.95 299.40,100.60 301.05,103.35 301.60,107.20"/>
    </edge>

    <edge id="-E0" from="J2" to="J1" priority="-1">
        <lane id="-E0_0" index="0" speed="13.89" length="92.80" shape="92.80,201.60 0.00,201.60"/>
    </edge>
    <edge id="-E1" from="J3" to="J2" priority="-1">
        <lane id="-E1_0" index="0" speed="13.89" length="85.60" shape="192.80,201.60 107.20,201.60"/>
    </edge>
    <edge id="-E10" from="J14" to="J13" priority="-1">
        <lane id="-E10_0" index="0" speed="13.89" length="85.60" shape="292.80,1.60 207.20,1.60"/>
    </edge>
    <edge id="-E11" from="J15" to="J14" priority="-1">
        <lane id="-E11_0" index="0" speed="13.89" length="92.80" shape="400.00,1.60 307.20,1.60"/>
    </edge>
    <edge id="-E12" from="J2" to="J16" priority="-1">
        <lane id="-E12_0" index="0" speed="13.89" length="92.80" shape="101.60,207.20 101.60,300.00"/>
    </edge>
    <edge id="-E13" from="J7" to="J2" priority="-1">
        <lane id="-E13_0" index="0" speed="13.89" length="85.60" shape="101.60,107.20 101.60,192.80"/>
    </edge>
    <edge id="-E14" from="J12" to="J7" priority="-1">
        <lane id="-E14_0" index="0" speed="13.89" length="85.60" shape="101.60,7.20 101.60,92.80"/>
    </edge>
    <edge id="-E15" from="J17" to="J12" priority="-1">
        <lane id="-E15_0" index="0" speed="13.89" length="92.80" shape="101.60,-100.00 101.60,-7.20"/>
    </edge>
    <edge id="-E16" from="J3" to="J18" priority="-1">
        <lane id="-E16_0" index="0" speed="13.89" length="92.80" shape="201.60,207.20 201.60,300.00"/>
    </edge>
    <edge id="-E17" from="J8" to="J3" priority="-1">
        <lane id="-E17_0" index="0" speed="13.89" length="85.60" shape="201.60,107.20 201.60,192.80"/>
    </edge>
    <edge id="-E18" from="J13" to="J8" priority="-1">
        <lane id="-E18_0" index="0" speed="13.89" length="85.60" shape="201.60,7.20 201.60,92.80"/>
    </edge>
    <edge id="-E19" from="J19" to="J13" priority="-1">
        <lane id="-E19_0" index="0" speed="13.89" length="92.80" shape="201.60,-100.00 201.60,-7.20"/>
    </edge>
    <edge id="-E2" from="J4" to="J3" priority="-1">
        <lane id="-E2_0" index="0" speed="13.89" length="85.60" shape="292.80,201.60 207.20,201.60"/>
    </edge>
    <edge id="-E20" from="J4" to="J20" priority="-1">
        <lane id="-E20_0" index="0" speed="13.89" length="92.80" shape="301.60,207.20 301.60,300.00"/>
    </edge>
    <edge id="-E21" from="J9" to="J4" priority="-1">
        <lane id="-E21_0" index="0" speed="13.89" length="85.60" shape="301.60,107.20 301.60,192.80"/>
    </edge>
    <edge id="-E22" from="J14" to="J9" priority="-1">
        <lane id="-E22_0" index="0" speed="13.89" length="85.60" shape="301.60,7.20 301.60,92.80"/>
    </edge>
    <edge id="-E23" from="J21" to="J14" priority="-1">
        <lane id="-E23_0" index="0" speed="13.89" length="92.80" shape="301.60,-100.00 301.60,-7.20"/>
    </edge>
    <edge id="-E3" from="J5" to="J4" priority="-1">
        <lane id="-E3_0" index="0" speed="13.89" length="92.80" shape="400.00,201.60 307.20,201.60"/>
    </edge>
    <edge id="-E4" from="J7" to="J6" priority="-1">
        <lane id="-E4_0" index="0" speed="13.89" length="92.80" shape="92.80,101.60 0.00,101.60"/>
    </edge>
    <edge id="-E5" from="J8" to="J7" priority="-1">
        <lane id="-E5_0" index="0" speed="13.89" length="85.60" shape="192.80,101.60 107.20,101.60"/>
    </edge>
    <edge id="-E6" from="J9" to="J8" priority="-1">
        <lane id="-E6_0" index="0" speed="13.89" length="85.60" shape="292.80,101.60 207.20,101.60"/>
    </edge>
    <edge id="-E7" from="J10" to="J9" priority="-1">
        <lane id="-E7_0" index="0" speed="13.89" length="92.80" shape="400.00,101.60 307.20,101.60"/>
    </edge>
    <edge id="-E8" from="J12" to="J11" priority="-1">
        <lane id="-E8_0" index="0" speed="13.89" length="92.80" shape="92.80,1.60 0.00,1.60"/>
    </edge>
    <edge id="-E9" from="J13" to="J12" priority="-1">
        <lane id="-E9_0" index="0" speed="13.89" length="85.60" shape="192.80,1.60 107.20,1.60"/>
    </edge>
    <edge id="E0" from="J1" to="J2" priority="-1">
        <lane id="E0_0" index="0" speed="13.89" length="92.80" shape="0.00,198.40 92.80,198.40"/>
    </edge>
    <edge id="E1" from="J2" to="J3" priority="-1">
        <lane id="E1_0" index="0" speed="13.89" length="85.60" shape="107.20,198.40 192.80,198.40"/>
    </edge>
    <edge id="E10" from="J13" to="J14" priority="-1">
        <lane id="E10_0" index="0" speed="13.89" length="85.60" shape="207.20,-1.60 292.80,-1.60"/>
    </edge>
    <edge id="E11" from="J14" to="J15" priority="-1">
        <lane id="E11_0" index="0" speed="13.89" length="92.80" shape="307.20,-1.60 400.00,-1.60"/>
    </edge>
    <edge id="E12" from="J16" to="J2" priority="-1">
        <lane id="E12_0" index="0" speed="13.89" length="92.80" shape="98.40,300.00 98.40,207.20"/>
    </edge>
    <edge id="E13" from="J2" to="J7" priority="-1">
        <lane id="E13_0" index="0" speed="13.89" length="85.60" shape="98.40,192.80 98.40,107.20"/>
    </edge>
    <edge id="E14" from="J7" to="J12" priority="-1">
        <lane id="E14_0" index="0" speed="13.89" length="85.60" shape="98.40,92.80 98.40,7.20"/>
    </edge>
    <edge id="E15" from="J12" to="J17" priority="-1">
        <lane id="E15_0" index="0" speed="13.89" length="92.80" shape="98.40,-7.20 98.40,-100.00"/>
    </edge>
    <edge id="E16" from="J18" to="J3" priority="-1">
        <lane id="E16_0" index="0" speed="13.89" length="92.80" shape="198.40,300.00 198.40,207.20"/>
    </edge>
    <edge id="E17" from="J3" to="J8" priority="-1">
        <lane id="E17_0" index="0" speed="13.89" length="85.60" shape="198.40,192.80 198.40,107.20"/>
    </edge>
    <edge id="E18" from="J8" to="J13" priority="-1">
        <lane id="E18_0" index="0" speed="13.89" length="85.60" shape="198.40,92.80 198.40,7.20"/>
    </edge>
    <edge id="E19" from="J13" to="J19" priority="-1">