<?xml version="1.0" encoding="UTF-8"?>

<!-- generated on 2024-08-12 22:06:54 by Eclipse SUMO sumo Version 1.18.0
-->

<configuration xmlns:xsi="http://www.w3.org/2001/XMLSchema-instance" xsi:noNamespaceSchemaLocation="http://sumo.dlr.de/xsd/sumoConfiguration.xsd">

    <input>
        <net-file value="3x3_swiatla.net.xml"/>
        <route-files value="3x3.rou.xml"/>
    </input>
	
	    <output>
        <tripinfo-output value="tripinfo_swiatla.xml"/>
    </output>

</configuration>
