<?xml version="1.0" encoding="UTF-8"?>

<!-- generated on 2025-03-15 17:40:27 by Eclipse SUMO netedit Version 1.21.0
-->

<routes xmlns:xsi="http://www.w3.org/2001/XMLSchema-instance" xsi:noNamespaceSchemaLocation="http://sumo.dlr.de/xsd/routes_file.xsd">
    <!-- Vehicles, persons and containers (sorted by depart) -->
    <flow id="flow_random1" begin="0.00" departLane="free" departSpeed="random" from="E0" to="E3" end="3600.00" probability="0.01000000000000000021"/>
    <flow id="flow_random10" begin="0.00" departLane="free" departSpeed="random" from="E12" to="E14" end="3600.00" probability="0.10000000000000000555"/>
    <flow id="flow_random11" begin="0.00" departLane="free" departSpeed="random" from="E20" to="E22" end="3600.00" probability="0.10000000000000000555"/>
    <flow id="flow_random12" begin="0.00" departLane="free" departSpeed="random" from="-E14" to="-E12" end="3600.00" probability="0.10000000000000000555"/>
    <flow id="flow_random14" begin="0.00" departLane="free" departSpeed="random" from="-E22" to="-E20" end="3600.00" probability="0.10000000000000000555"/>
    <flow id="flow_random3" begin="0.00" departLane="free" departSpeed="random" from="E20" to="E14" end="3600.00" probability="0.01000000000000000021"/>
    <flow id="flow_random4" begin="0.00" departLane="free" departSpeed="random" from="E0" to="E7" end="3600.00" probability="0.10000000000000000555"/>
    <flow id="flow_random5" begin="0.00" departLane="free" departSpeed="random" from="E4" to="E7" end="3600.00" probability="0.10000000000000000555"/>
    <flow id="flow_random6" begin="0.00" departLane="free" departSpeed="random" from="E4" to="E3" end="3600.00" probability="0.10000000000000000555"/>
    <flow id="flow_random7" begin="0.00" departLane="free" departSpeed="random" from="-E3" to="E22" via="-E2 E1" end="3600.00" probability="0.01000000000000000021"/>
    <flow id="flow_random8" begin="0.00" departLane="free" departSpeed="random" from="-E3" to="-E0" end="3600.00" probability="0.10000000000000000555"/>
    <flow id="flow_random9" begin="0.00" departLane="free" departSpeed="random" from="-E7" to="-E4" end="3600.00" probability="0.01000000000000000021"/>
</routes>
