<?xml version="1.0" encoding="UTF-8"?>

<!-- generated on 2025-03-15 17:40:27 by Eclipse SUMO netedit Version 1.21.0
<neteditConfiguration xmlns:xsi="http://www.w3.org/2001/XMLSchema-instance" xsi:noNamespaceSchemaLocation="http://sumo.dlr.de/xsd/neteditConfiguration.xsd">

    <input>
        <sumocfg-file value="C:\DATA\ROB\PRACA\praca_In\_KOD\2x2_END_swiatla_glupie\2x2.sumocfg"/>
        <additional-files value="C:\DATA\ROB\PRACA\praca_In\_KOD\2x2_END_swiatla_glupie\2x2.add.xml"/>
        <route-files value="C:\DATA\ROB\PRACA\praca_In\_KOD\2x2_END_swiatla_glupie\2x2.rou.xml"/>
        <data-files value="C:\DATA\ROB\PRACA\praca_In\_KOD\2x2_END_swiatla_glupie\2x2.dat.xml"/>
        <sumo-net-file value="C:\DATA\ROB\PRACA\praca_In\_KOD\2x2_END_swiatla_glupie\2x2.net.xml"/>
    </input>

    <output>
        <output-file value="C:\DATA\ROB\PRACA\praca_In\_KOD\2x2_END_swiatla_glupie\2x2.net.xml"/>
    </output>

    <processing>
        <geometry.min-radius.fix.railways value="false"/>
        <geometry.max-grade.fix value="false"/>
        <offset.disable-normalization value="true"/>
        <lefthand value="0"/>
    </processing>

    <junctions>
        <no-turnarounds value="true"/>
        <junctions.corner-detail value="5"/>
        <junctions.limit-turn-speed value="5.50"/>
        <rectangular-lane-cut value="0"/>
    </junctions>

    <pedestrian>
        <walkingareas value="0"/>
    </pedestrian>

</neteditConfiguration>
-->

<net version="1.20" junctionCornerDetail="5" limitTurnSpeed="5.50" xmlns:xsi="http://www.w3.org/2001/XMLSchema-instance" xsi:noNamespaceSchemaLocation="http://sumo.dlr.de/xsd/net_file.xsd">

    <location netOffset="0.00,0.00" convBoundary="-279.20,0.00,748.40,300.00" origBoundary="-10000000000.00,-10000000000.00,10000000000.00,10000000000.00" projParameter="!"/>

    <edge id=":P4_0" function="internal">
        <lane id=":P4_0_0" index="0" speed="6.51" length="9.03" shape="98.40,207.20 98.05,204.75 97.00,203.00 95.25,201.95 92.80,201.60"/>
    </edge>
    <edge id=":P4_1" function="internal">
        <lane id=":P4_1_0" index="0" speed="13.89" length="14.40" shape="98.40,207.20 98.40,192.80"/>
    </edge>
    <edge id=":P4_2" function="internal">
        <lane id=":P4_2_0" index="0" speed="8.00" length="4.07" shape="98.40,207.20 98.95,203.35 99.04,203.20"/>
    </edge>
    <edge id=":P4_12" function="internal">
        <lane id=":P4_12_0" index="0" speed="8.00" length="10.13" shape="99.04,203.20 100.60,200.60 103.35,198.95 107.20,198.40"/>
    </edge>
    <edge id=":P4_3" function="internal">
        <lane id=":P4_3_0" index="0" speed="6.51" length="9.03" shape="107.20,201.60 104.75,201.95 103.00,203.00 101.95,204.75 101.60,207.20"/>
    </edge>
    <edge id=":P4_4" function="internal">
        <lane id=":P4_4_0" index="0" speed="13.89" length="14.40" shape="107.20,201.60 92.80,201.60"/>
    </edge>
    <edge id=":P4_5" function="internal">
        <lane id=":P4_5_0" index="0" speed="8.00" length="4.07" shape="107.20,201.60 103.35,201.05 103.20,200.96"/>
    </edge>
    <edge id=":P4_13" function="internal">
        <lane id=":P4_13_0" index="0" speed="8.00" length="10.13" shape="103.20,200.96 100.60,199.40 98.95,196.65 98.40,192.80"/>
    </edge>
    <edge id=":P4_6" function="internal">
        <lane id=":P4_6_0" index="0" speed="6.51" length="9.03" shape="101.60,192.80 101.95,195.25 103.00,197.00 104.75,198.05 107.20,198.40"/>
    </edge>
    <edge id=":P4_7" function="internal">
        <lane id=":P4_7_0" index="0" speed="13.89" length="14.40" shape="101.60,192.80 101.60,207.20"/>
    </edge>
    <edge id=":P4_8" function="internal">
        <lane id=":P4_8_0" index="0" speed="8.00" length="4.07" shape="101.60,192.80 101.05,196.65 100.96,196.80"/>
    </edge>
    <edge id=":P4_14" function="internal">
        <lane id=":P4_14_0" index="0" speed="8.00" length="10.13" shape="100.96,196.80 99.40,199.40 96.65,201.05 92.80,201.60"/>
    </edge>
    <edge id=":P4_9" function="internal">
        <lane id=":P4_9_0" index="0" speed="6.51" length="9.03" shape="92.80,198.40 95.25,198.05 97.00,197.00 98.05,195.25 98.40,192.80"/>
    </edge>
    <edge id=":P4_10" function="internal">
        <lane id=":P4_10_0" index="0" speed="13.89" length="14.40" shape="92.80,198.40 107.20,198.40"/>
    </edge>
    <edge id=":P4_11" function="internal">
        <lane id=":P4_11_0" index="0" speed="8.00" length="4.07" shape="92.80,198.40 96.65,198.95 96.80,199.04"/>
    </edge>
    <edge id=":P4_15" function="internal">
        <lane id=":P4_15_0" index="0" speed="8.00" length="10.13" shape="96.80,199.04 99.40,200.60 101.05,203.35 101.60,207.20"/>
    </edge>
    <edge id=":P5_0" function="internal">
        <lane id=":P5_0_0" index="0" speed="6.51" length="9.03" shape="298.40,207.20 298.05,204.75 297.00,203.00 295.25,201.95 292.80,201.60"/>
    </edge>
    <edge id=":P5_1" function="internal">
        <lane id=":P5_1_0" index="0" speed="13.89" length="14.40" shape="298.40,207.20 298.40,192.80"/>
    </edge>
    <edge id=":P5_2" function="internal">
        <lane id=":P5_2_0" index="0" speed="8.00" length="4.07" shape="298.40,207.20 298.95,203.35 299.04,203.20"/>
    </edge>
    <edge id=":P5_12" function="internal">
        <lane id=":P5_12_0" index="0" speed="8.00" length="10.13" shape="299.04,203.20 300.60,200.60 303.35,198.95 307.20,198.40"/>
    </edge>
    <edge id=":P5_3" function="internal">
        <lane id=":P5_3_0" index="0" speed="6.51" length="9.03" shape="307.20,201.60 304.75,201.95 303.00,203.00 301.95,204.75 301.60,207.20"/>
    </edge>
    <edge id=":P5_4" function="internal">
        <lane id=":P5_4_0" index="0" speed="13.89" length="14.40" shape="307.20,201.60 292.80,201.60"/>
    </edge>
    <edge id=":P5_5" function="internal">
        <lane id=":P5_5_0" index="0" speed="8.00" length="4.07" shape="307.20,201.60 303.35,201.05 303.20,200.96"/>
    </edge>
    <edge id=":P5_13" function="internal">
        <lane id=":P5_13_0" index="0" speed="8.00" length="10.13" shape="303.20,200.96 300.60,199.40 298.95,196.65 298.40,192.80"/>
    </edge>
    <edge id=":P5_6" function="internal">
        <lane id=":P5_6_0" index="0" speed="6.51" length="9.03" shape="301.60,192.80 301.95,195.25 303.00,197.00 304.75,198.05 307.20,198.40"/>
    </edge>
    <edge id=":P5_7" function="internal">
        <lane id=":P5_7_0" index="0" speed="13.89" length="14.40" shape="301.60,192.80 301.60,207.20"/>
    </edge>
    <edge id=":P5_8" function="internal">
        <lane id=":P5_8_0" index="0" speed="8.00" length="4.07" shape="301.60,192.80 301.05,196.65 300.96,196.80"/>
    </edge>
    <edge id=":P5_14" function="internal">
        <lane id=":P5_14_0" index="0" speed="8.00" length="10.13" shape="300.96,196.80 299.40,199.40 296.65,201.05 292.80,201.60"/>
    </edge>
    <edge id=":P5_9" function="internal">
        <lane id=":P5_9_0" index="0" speed="6.51" length="9.03" shape="292.80,198.40 295.25,198.05 297.00,197.00 298.05,195.25 298.40,192.80"/>
    </edge>
    <edge id=":P5_10" function="internal">
        <lane id=":P5_10_0" index="0" speed="13.89" length="14.40" shape="292.80,198.40 307.20,198.40"/>
    </edge>
    <edge id=":P5_11" function="internal">
        <lane id=":P5_11_0" index="0" speed="8.00" length="4.07" shape="292.80,198.40 296.65,198.95 296.80,199.04"/>
    </edge>
    <edge id=":P5_15" function="internal">
        <lane id=":P5_15_0" index="0" speed="8.00" length="10.13" shape="296.80,199.04 299.40,200.60 301.05,203.35 301.60,207.20"/>
    </edge>
    <edge id=":P8_0" function="internal">
        <lane id=":P8_0_0" index="0" speed="6.51" length="9.03" shape="98.40,107.20 98.05,104.75 97.00,103.00 95.25,101.95 92.80,101.60"/>
    </edge>
    <edge id=":P8_1" function="internal">
        <lane id=":P8_1_0" index="0" speed="13.89" length="14.40" shape="98.40,107.20 98.40,92.80"/>
    </edge>
    <edge id=":P8_2" function="internal">
        <lane id=":P8_2_0" index="0" speed="8.00" length="4.07" shape="98.40,107.20 98.95,103.35 99.04,103.20"/>
    </edge>
    <edge id=":P8_12" function="internal">
        <lane id=":P8_12_0" index="0" speed="8.00" length="10.13" shape="99.04,103.20 100.60,100.60 103.35,98.95 107.20,98.40"/>
    </edge>
    <edge id=":P8_3" function="internal">
        <lane id=":P8_3_0" index="0" speed="6.51" length="9.03" shape="107.20,101.60 104.75,101.95 103.00,103.00 101.95,104.75 101.60,107.20"/>
    </edge>
    <edge id=":P8_4" function="internal">
        <lane id=":P8_4_0" index="0" speed="13.89" length="14.40" shape="107.20,101.60 92.80,101.60"/>
    </edge>
    <edge id=":P8_5" function="internal">
        <lane id=":P8_5_0" index="0" speed="8.00" length="4.07" shape="107.20,101.60 103.35,101.05 103.20,100.96"/>
    </edge>
    <edge id=":P8_13" function="internal">
        <lane id=":P8_13_0" index="0" speed="8.00" length="10.13" shape="103.20,100.96 100.60,99.40 98.95,96.65 98.40,92.80"/>
    </edge>
    <edge id=":P8_6" function="internal">
        <lane id=":P8_6_0" index="0" speed="6.51" length="9.03" shape="101.60,92.80 101.95,95.25 103.00,97.00 104.75,98.05 107.20,98.40"/>
    </edge>
    <edge id=":P8_7" function="internal">
        <lane id=":P8_7_0" index="0" speed="13.89" length="14.40" shape="101.60,92.80 101.60,107.20"/>
    </edge>
    <edge id=":P8_8" function="internal">
        <lane id=":P8_8_0" index="0" speed="8.00" length="4.07" shape="101.60,92.80 101.05,96.65 100.96,96.80"/>
    </edge>
    <edge id=":P8_14" function="internal">
        <lane id=":P8_14_0" index="0" speed="8.00" length="10.13" shape="100.96,96.80 99.40,99.40 96.65,101.05 92.80,101.60"/>
    </edge>
    <edge id=":P8_9" function="internal">
        <lane id=":P8_9_0" index="0" speed="6.51" length="9.03" shape="92.80,98.40 95.25,98.05 97.00,97.00 98.05,95.25 98.40,92.80"/>
    </edge>
    <edge id=":P8_10" function="internal">
        <lane id=":P8_10_0" index="0" speed="13.89" length="14.40" shape="92.80,98.40 107.20,98.40"/>
    </edge>
    <edge id=":P8_11" function="internal">
        <lane id=":P8_11_0" index="0" speed="8.00" length="4.07" shape="92.80,98.40 96.65,98.95 96.80,99.04"/>
    </edge>
    <edge id=":P8_15" function="internal">
        <lane id=":P8_15_0" index="0" speed="8.00" length="10.13" shape="96.80,99.04 99.40,100.60 101.05,103.35 101.60,107.20"/>
    </edge>
    <edge id=":P9_0" function="internal">
        <lane id=":P9_0_0" index="0" speed="6.51" length="9.03" shape="298.40,107.20 298.05,104.75 297.00,103.00 295.25,101.95 292.80,101.60"/>
    </edge>
    <edge id=":P9_1" function="internal">
        <lane id=":P9_1_0" index="0" speed="13.89" length="14.40" shape="298.40,107.20 298.40,92.80"/>
    </edge>
    <edge id=":P9_2" function="internal">
        <lane id=":P9_2_0" index="0" speed="8.00" length="4.07" shape="298.40,107.20 298.95,103.35 299.04,103.20"/>
    </edge>
    <edge id=":P9_12" function="internal">
        <lane id=":P9_12_0" index="0" speed="8.00" length="10.13" shape="299.04,103.20 300.60,100.60 303.35,98.95 307.20,98.40"/>
    </edge>
    <edge id=":P9_3" function="internal">
        <lane id=":P9_3_0" index="0" speed="6.51" length="9.03" shape="307.20,101.60 304.75,101.95 303.00,103.00 301.95,104.75 301.60,107.20"/>
    </edge>
    <edge id=":P9_4" function="internal">
        <lane id=":P9_4_0" index="0" speed="13.89" length="14.40" shape="307.20,101.60 292.80,101.60"/>
    </edge>
    <edge id=":P9_5" function="internal">
        <lane id=":P9_5_0" index="0" speed="8.00" length="4.07" shape="307.20,101.60 303.35,101.05 303.20,100.96"/>
    </edge>
    <edge id=":P9_13" function="internal">
        <lane id=":P9_13_0" index="0" speed="8.00" length="10.13" shape="303.20,100.96 300.60,99.40 298.95,96.65 298.40,92.80"/>
    </edge>
    <edge id=":P9_6" function="internal">
        <lane id=":P9_6_0" index="0" speed="6.51" length="9.03" shape="301.60,92.80 301.95,95.25 303.00,97.00 304.75,98.05 307.20,98.40"/>
    </edge>
    <edge id=":P9_7" function="internal">
        <lane id=":P9_7_0" index="0" speed="13.89" length="14.40" shape="301.60,92.80 301.60,107.20"/>
    </edge>
    <edge id=":P9_8" function="internal">
        <lane id=":P9_8_0" index="0" speed="8.00" length="4.07" shape="301.60,92.80 301.05,96.65 300.96,96.80"/>
    </edge>
    <edge id=":P9_14" function="internal">
        <lane id=":P9_14_0" index="0" speed="8.00" length="10.13" shape="300.96,96.80 299.40,99.40 296.65,101.05 292.80,101.60"/>
    </edge>
    <edge id=":P9_9" function="internal">
        <lane id=":P9_9_0" index="0" speed="6.51" length="9.03" shape="292.80,98.40 295.25,98.05 297.00,97.00 298.05,95.25 298.40,92.80"/>
    </edge>
    <edge id=":P9_10" function="internal">
        <lane id=":P9_10_0" index="0" speed="13.89" length="14.40" shape="292.80,98.40 307.20,98.40"/>
    </edge>
    <edge id=":P9_11" function="internal">
        <lane id=":P9_11_0" index="0" speed="8.00" length="4.07" shape="292.80,98.40 296.65,98.95 296.80,99.04"/>
    </edge>
    <edge id=":P9_15" function="internal">
        <lane id=":P9_15_0" index="0" speed="8.00" length="10.13" shape="296.80,99.04 299.40,100.60 301.05,103.35 301.60,107.20"/>
    </edge>

    <edge id="-E0" from="P4" to="P3" priority="-1">
        <lane id="-E0_0" index="0" speed="13.89" length="372.00" shape="92.80,201.60 -279.20,201.60"/>
    </edge>
    <edge id="-E1" from="P5" to="P4" priority="-1">
        <lane id="-E1_0" index="0" speed="13.89" length="185.60" shape="292.80,201.60 107.20,201.60"/>
    </edge>
    <edge id="-E12" from="P4" to="P1" priority="-1">
        <lane id="-E12_0" index="0" speed="13.89" length="92.80" shape="101.60,207.20 101.60,300.00"/>
    </edge>
    <edge id="-E13" from="P8" to="P4" priority="-1">
        <lane id="-E13_0" index="0" speed="13.89" length="85.60" shape="101.60,107.20 101.60,192.80"/>
    </edge>
    <edge id="-E14" from="P11" to="P8" priority="-1">
        <lane id="-E14_0" index="0" speed="13.89" length="92.80" shape="101.60,0.00 101.60,92.80"/>
    </edge>
    <edge id="-E2" from="P9" to="P8" priority="-1">
        <lane id="-E2_0" index="0" speed="13.89" length="185.60" shape="292.80,101.60 107.20,101.60"/>
    </edge>
    <edge id="-E20" from="P5" to="P2" priority="-1">
        <lane id="-E20_0" index="0" speed="13.89" length="92.80" shape="301.60,207.20 301.60,300.00"/>
    </edge>
    <edge id="-E21" from="P9" to="P5" priority="-1">
        <lane id="-E21_0" index="0" speed="13.89" length="85.60" shape="301.60,107.20 301.60,192.80"/>
    </edge>
    <edge id="-E22" from="P12" to="P9" priority="-1">
        <lane id="-E22_0" index="0" speed="13.89" length="92.80" shape="301.60,0.00 301.60,92.80"/>
    </edge>
    <edge id="-E3" from="P6" to="P5" priority="-1">
        <lane id="-E3_0" index="0" speed="13.89" length="437.20" shape="744.40,201.60 307.20,201.60"/>
    </edge>
    <edge id="-E4" from="P8" to="P7" priority="-1">
        <lane id="-E4_0" index="0" speed="13.89" length="371.60" shape="92.80,101.60 -278.80,101.60"/>
    </edge>
    <edge id="-E7" from="P10" to="P9" priority="-1">
        <lane id="-E7_0" index="0" speed="13.89" length="441.20" shape="748.40,101.60 307.20,101.60"/>
    </edge>
    <edge id="E0" from="P3" to="P4" priority="-1">
        <lane id="E0_0" index="0" speed="13.89" length="372.00" shape="-279.20,198.40 92.80,198.40"/>
    </edge>
    <edge id="E1" from="P4" to="P5" priority="-1">
        <lane id="E1_0" index="0" speed="13.89" length="185.60" shape="107.20,198.40 292.80,198.40"/>
    </edge>
    <edge id="E12" from="P1" to="P4" priority="-1">
        <lane id="E12_0" index="0" speed="13.89" length="92.80" shape="98.40,300.00 98.40,207.20"/>
    </edge>
    <edge id="E13" from="P4" to="P8" priority="-1">
        <lane id="E13_0" index="0" speed="13.89" length="85.60" shape="98.40,192.80 98.40,107.20"/>
    </edge>
    <edge id="E14" from="P8" to="P11" priority="-1">
        <lane id="E14_0" index="0" speed="13.89" length="92.80" shape="98.40,92.80 98.40,0.00"/>
    </edge>
    <edge id="E2" from="P8" to="P9" priority="-1">
        <lane id="E2_0" index="0" speed="13.89" length="185.60" shape="107.20,98.40 292.80,98.40"/>
    </edge>
    <edge id="E20" from="P2" to="P5" priority="-1">
        <lane id="E20_0" index="0" speed="13.89" length="92.80" shape="298.40,300.00 298.40,207.20"/>
    </edge>
    <edge id="E21" from="P5" to="P9" priority="-1">
        <lane id="E21_0" index="0" speed="13.89" length="85.60" shape="298.40,192.80 298.40,107.20"/>
    </edge>
    <edge id="E22" from="P9" to="P12" priority="-1">
        <lane id="E22_0" index="0" speed="13.89" length="92.80" shape="298.40,92.80 298.40,0.00"/>
    </edge>
    <edge id="E3" from="P5" to="P6" priority="-1">
        <lane id="E3_0" index="0" speed="13.89" length="437.20" shape="307.20,198.40 744.40,198.40"/>
    </edge>
    <edge id="E4" from="P7" to="P8" priority="-1">
        <lane id="E4_0" index="0" speed="13.89" length="371.60" shape="-278.80,98.40 92.80,98.40"/>
    </edge>
    <edge id="E7" from="P9" to="P10" priority="-1">
        <lane id="E7_0" index="0" speed="13.89" length="441.20" shape="307.20,98.40 748.40,98.40"/>
    </edge>

    <tlLogic id="P4" type="actuated" programID="0" offset="0">
        <phase duration="42" state="GGgrrrGGgrrr" minDur="5" maxDur="50"/>
        <phase duration="3"  state="yyyrrryyyrrr"/>
        <phase duration="42" state="rrrGGgrrrGGg" minDur="5" maxDur="50"/>
        <phase duration="3"  state="rrryyyrrryyy"/>
    </tlLogic>
    <tlLogic id="P5" type="actuated" programID="0" offset="0">
        <phase duration="42" state="GGgrrrGGgrrr" minDur="5" maxDur="50"/>
        <phase duration="3"  state="yyyrrryyyrrr"/>
        <phase duration="42" state="rrrGGgrrrGGg" minDur="5" maxDur="50"/>
        <phase duration="3"  state="rrryyyrrryyy"/>
    </tlLogic>
    <tlLogic id="P8" type="actuated" programID="0" offset="0">
        <phase duration="42" state="GGgrrrGGgrrr" minDur="5" maxDur="50"/>
        <phase duration="3"  state="yyyrrryyyrrr"/>
        <phase duration="42" state="rrrGGgrrrGGg" minDur="5" maxDur="50"/>
        <phase duration="3"  state="rrryyyrrryyy"/>
    </tlLogic>
    <tlLogic id="P9" type="static" programID="0" offset="0">
        <phase duration="42" state="GGgrrrGGgrrr"/>
        <phase duration="3"  state="yyyrrryyyrrr"/>
        <phase duration="42" state="rrrGGgrrrGGg"/>
        <phase duration="3"  state="rrryyyrrryyy"/>
    </tlLogic>

    <junction id="P1" type="dead_end" x="100.00" y="300.00" incLanes="-E12_0" intLanes="" shape="100.00,300.00 103.20,300.00 100.00,300.00"/>
    <junction id="P10" type="dead_end" x="748.40" y="100.00" incLanes="E7_0" intLanes="" shape="748.40,100.00 748.40,96.80 748.40,100.00"/>
    <junction id="P11" type="dead_end" x="100.00" y="0.00" incLanes="E14_0" intLanes="" shape="100.00,0.00 96.80,0.00 100.00,0.00"/>
    <junction id="P12" type="dead_end" x="300.00" y="0.00" incLanes="E22_0" intLanes="" shape="300.00,0.00 296.80,0.00 300.00,0.00"/>
    <junction id="P2" type="dead_end" x="300.00" y="300.00" incLanes="-E20_0" intLanes="" shape="300.00,300.00 303.20,300.00 300.00,300.00"/>
    <junction id="P3" type="dead_end" x="-279.20" y="200.00" incLanes="-E0_0" intLanes="" shape="-279.20,200.00 -279.20,203.20 -279.20,200.00"/>
    <junction id="P4" type="traffic_light" x="100.00" y="200.00" incLanes="E12_0 -E1_0 -E13_0 E0_0" intLanes=":P4_0_0 :P4_1_0 :P4_12_0 :P4_3_0 :P4_4_0 :P4_13_0 :P4_6_0 :P4_7_0 :P4_14_0 :P4_9_0 :P4_10_0 :P4_15_0" shape="96.80,207.20 103.20,207.20 103.64,204.98 104.20,204.20 104.98,203.64 105.98,203.31 107.20,203.20 107.20,196.80 104.98,196.36 104.20,195.80 103.64,195.02 103.31,194.02 103.20,192.80 96.80,192.80 96.36,195.02 95.80,195.80 95.02,196.36 94.02,196.69 92.80,196.80 92.80,203.20 95.02,203.64 95.80,204.20 96.36,204.98 96.69,205.98">
        <request index="0"  response="000000000000" foes="000100010000" cont="0"/>
        <request index="1"  response="100000100000" foes="111100110000" cont="0"/>
        <request index="2"  response="100011100000" foes="110111110000" cont="1"/>
        <request index="3"  response="000010000000" foes="100010000000" cont="0"/>
        <request index="4"  response="000110000111" foes="100110000111" cont="0"/>
        <request index="5"  response="111110000110" foes="111110000110" cont="1"/>
        <request index="6"  response="000000000000" foes="010000000100" cont="0"/>
        <request index="7"  response="100000100000" foes="110000111100" cont="0"/>
        <request index="8"  response="100000100111" foes="110000110111" cont="1"/>
        <request index="9"  response="000000000010" foes="000000100010" cont="0"/>
        <request index="10" response="000111000110" foes="000111100110" cont="0"/>
        <request index="11" response="000110011110" foes="000110111110" cont="1"/>
    </junction>
    <junction id="P5" type="traffic_light" x="300.00" y="200.00" incLanes="E20_0 -E3_0 -E21_0 E1_0" intLanes=":P5_0_0 :P5_1_0 :P5_12_0 :P5_3_0 :P5_4_0 :P5_13_0 :P5_6_0 :P5_7_0 :P5_14_0 :P5_9_0 :P5_10_0 :P5_15_0" shape="296.80,207.20 303.20,207.20 303.64,204.98 304.20,204.20 304.98,203.64 305.98,203.31 307.20,203.20 307.20,196.80 304.98,196.36 304.20,195.80 303.64,195.02 303.31,194.02 303.20,192.80 296.80,192.80 296.36,195.02 295.80,195.80 295.02,196.36 294.02,196.69 292.80,196.80 292.80,203.20 295.02,203.64 295.80,204.20 296.36,204.98 296.69,205.98">
        <request index="0"  response="000000000000" foes="000100010000" cont="0"/>
        <request index="1"  response="100000100000" foes="111100110000" cont="0"/>
        <request index="2"  response="100011100000" foes="110111110000" cont="1"/>
        <request index="3"  response="000010000000" foes="100010000000" cont="0"/>
        <request index="4"  response="000110000111" foes="100110000111" cont="0"/>
        <request index="5"  response="111110000110" foes="111110000110" cont="1"/>
        <request index="6"  response="000000000000" foes="010000000100" cont="0"/>
        <request index="7"  response="100000100000" foes="110000111100" cont="0"/>
        <request index="8"  response="100000100111" foes="110000110111" cont="1"/>
        <request index="9"  response="000000000010" foes="000000100010" cont="0"/>
        <request index="10" response="000111000110" foes="000111100110" cont="0"/>
        <request index="11" response="000110011110" foes="000110111110" cont="1"/>
    </junction>
    <junction id="P6" type="dead_end" x="744.40" y="200.00" incLanes="E3_0" intLanes="" shape="744.40,200.00 744.40,196.80 744.40,200.00"/>
    <junction id="P7" type="dead_end" x="-278.80" y="100.00" incLanes="-E4_0" intLanes="" shape="-278.80,100.00 -278.80,103.20 -278.80,100.00"/>
    <junction id="P8" type="traffic_light" x="100.00" y="100.00" incLanes="E13_0 -E2_0 -E14_0 E4_0" intLanes=":P8_0_0 :P8_1_0 :P8_12_0 :P8_3_0 :P8_4_0 :P8_13_0 :P8_6_0 :P8_7_0 :P8_14_0 :P8_9_0 :P8_10_0 :P8_15_0" shape="96.80,107.20 103.20,107.20 103.64,104.98 104.20,104.20 104.98,103.64 105.98,103.31 107.20,103.20 107.20,96.80 104.98,96.36 104.20,95.80 103.64,95.02 103.31,94.02 103.20,92.80 96.80,92.80 96.36,95.02 95.80,95.80 95.02,96.36 94.02,96.69 92.80,96.80 92.80,103.20 95.02,103.64 95.80,104.20 96.36,104.98 96.69,105.98">
        <request index="0"  response="000000000000" foes="000100010000" cont="0"/>
        <request index="1"  response="100000100000" foes="111100110000" cont="0"/>
        <request index="2"  response="100011100000" foes="110111110000" cont="1"/>
        <request index="3"  response="000010000000" foes="100010000000" cont="0"/>
        <request index="4"  response="000110000111" foes="100110000111" cont="0"/>
        <request index="5"  response="111110000110" foes="111110000110" cont="1"/>
        <request index="6"  response="000000000000" foes="010000000100" cont="0"/>
        <request index="7"  response="100000100000" foes="110000111100" cont="0"/>
        <request index="8"  response="100000100111" foes="110000110111" cont="1"/>
        <request index="9"  response="000000000010" foes="000000100010" cont="0"/>
        <request index="10" response="000111000110" foes="000111100110" cont="0"/>
        <request index="11" response="000110011110" foes="000110111110" cont="1"/>
    </junction>
    <junction id="P9" type="traffic_light" x="300.00" y="100.00" incLanes="E21_0 -E7_0 -E22_0 E2_0" intLanes=":P9_0_0 :P9_1_0 :P9_12_0 :P9_3_0 :P9_4_0 :P9_13_0 :P9_6_0 :P9_7_0 :P9_14_0 :P9_9_0 :P9_10_0 :P9_15_0" shape="296.80,107.20 303.20,107.20 303.64,104.98 304.20,104.20 304.98,103.64 305.98,103.31 307.20,103.20 307.20,96.80 304.98,96.36 304.20,95.80 303.64,95.02 303.31,94.02 303.20,92.80 296.80,92.80 296.36,95.02 295.80,95.80 295.02,96.36 294.02,96.69 292.80,96.80 292.80,103.20 295.02,103.64 295.80,104.20 296.36,104.98 296.69,105.98">
        <request index="0"  response="000000000000" foes="000100010000" cont="0"/>
        <request index="1"  response="100000100000" foes="111100110000" cont="0"/>
        <request index="2"  response="100011100000" foes="110111110000" cont="1"/>
        <request index="3"  response="000010000000" foes="100010000000" cont="0"/>
        <request index="4"  response="000110000111" foes="100110000111" cont="0"/>
        <request index="5"  response="111110000110" foes="111110000110" cont="1"/>
        <request index="6"  response="000000000000" foes="010000000100" cont="0"/>
        <request index="7"  response="100000100000" foes="110000111100" cont="0"/>
        <request index="8"  response="100000100111" foes="110000110111" cont="1"/>
        <request index="9"  response="000000000010" foes="000000100010" cont="0"/>
        <request index="10" response="000111000110" foes="000111100110" cont="0"/>
        <request index="11" response="000110011110" foes="000110111110" cont="1"/>
    </junction>

    <junction id=":P4_12_0" type="internal" x="99.04" y="203.20" incLanes=":P4_2_0 -E13_0" intLanes=":P4_4_0 :P4_5_0 :P4_6_0 :P4_7_0 :P4_10_0 :P4_11_0"/>
    <junction id=":P4_13_0" type="internal" x="103.20" y="200.96" incLanes=":P4_5_0 E0_0" intLanes=":P4_1_0 :P4_2_0 :P4_7_0 :P4_8_0 :P4_9_0 :P4_10_0"/>
    <junction id=":P4_14_0" type="internal" x="100.96" y="196.80" incLanes=":P4_8_0 E12_0" intLanes=":P4_0_0 :P4_1_0 :P4_4_0 :P4_5_0 :P4_10_0 :P4_11_0"/>
    <junction id=":P4_15_0" type="internal" x="96.80" y="199.04" incLanes=":P4_11_0 -E1_0" intLanes=":P4_1_0 :P4_2_0 :P4_3_0 :P4_4_0 :P4_7_0 :P4_8_0"/>
    <junction id=":P5_12_0" type="internal" x="299.04" y="203.20" incLanes=":P5_2_0 -E21_0" intLanes=":P5_4_0 :P5_5_0 :P5_6_0 :P5_7_0 :P5_10_0 :P5_11_0"/>
    <junction id=":P5_13_0" type="internal" x="303.20" y="200.96" incLanes=":P5_5_0 E1_0" intLanes=":P5_1_0 :P5_2_0 :P5_7_0 :P5_8_0 :P5_9_0 :P5_10_0"/>
    <junction id=":P5_14_0" type="internal" x="300.96" y="196.80" incLanes=":P5_8_0 E20_0" intLanes=":P5_0_0 :P5_1_0 :P5_4_0 :P5_5_0 :P5_10_0 :P5_11_0"/>
    <junction id=":P5_15_0" type="internal" x="296.80" y="199.04" incLanes=":P5_11_0 -E3_0" intLanes=":P5_1_0 :P5_2_0 :P5_3_0 :P5_4_0 :P5_7_0 :P5_8_0"/>
    <junction id=":P8_12_0" type="internal" x="99.04" y="103.20" incLanes=":P8_2_0 -E14_0" intLanes=":P8_4_0 :P8_5_0 :P8_6_0 :P8_7_0 :P8_10_0 :P8_11_0"/>
    <junction id=":P8_13_0" type="internal" x="103.20" y="100.96" incLanes=":P8_5_0 E4_0" intLanes=":P8_1_0 :P8_2_0 :P8_7_0 :P8_8_0 :P8_9_0 :P8_10_0"/>
    <junction id=":P8_14_0" type="internal" x="100.96" y="96.80" incLanes=":P8_8_0 E13_0" intLanes=":P8_0_0 :P8_1_0 :P8_4_0 :P8_5_0 :P8_10_0 :P8_11_0"/>
    <junction id=":P8_15_0" type="internal" x="96.80" y="99.04" incLanes=":P8_11_0 -E2_0" intLanes=":P8_1_0 :P8_2_0 :P8_3_0 :P8_4_0 :P8_7_0 :P8_8_0"/>
    <junction id=":P9_12_0" type="internal" x="299.04" y="103.20" incLanes=":P9_2_0 -E22_0" intLanes=":P9_4_0 :P9_5_0 :P9_6_0 :P9_7_0 :P9_10_0 :P9_11_0"/>
    <junction id=":P9_13_0" type="internal" x="303.20" y="100.96" incLanes=":P9_5_0 E2_0" intLanes=":P9_1_0 :P9_2_0 :P9_7_0 :P9_8_0 :P9_9_0 :P9_10_0"/>
    <junction id=":P9_14_0" type="internal" x="300.96" y="96.80" incLanes=":P9_8_0 E21_0" intLanes=":P9_0_0 :P9_1_0 :P9_4_0 :P9_5_0 :P9_10_0 :P9_11_0"/>
    <junction id=":P9_15_0" type="internal" x="296.80" y="99.04" incLanes=":P9_11_0 -E7_0" intLanes=":P9_1_0 :P9_2_0 :P9_3_0 :P9_4_0 :P9_7_0 :P9_8_0"/>

    <connection from="-E1" to="-E12" fromLane="0" toLane="0" via=":P4_3_0" tl="P4" linkIndex="3" dir="r" state="o"/>
    <connection from="-E1" to="-E0" fromLane="0" toLane="0" via=":P4_4_0" tl="P4" linkIndex="4" dir="s" state="o"/>
    <connection from="-E1" to="E13" fromLane="0" toLane="0" via=":P4_5_0" tl="P4" linkIndex="5" dir="l" state="o"/>
    <connection from="-E13" to="E1" fromLane="0" toLane="0" via=":P4_6_0" tl="P4" linkIndex="6" dir="r" state="O"/>
    <connection from="-E13" to="-E12" fromLane="0" toLane="0" via=":P4_7_0" tl="P4" linkIndex="7" dir="s" state="O"/>
    <connection from="-E13" to="-E0" fromLane="0" toLane="0" via=":P4_8_0" tl="P4" linkIndex="8" dir="l" state="o"/>
    <connection from="-E14" to="E2" fromLane="0" toLane="0" via=":P8_6_0" tl="P8" linkIndex="6" dir="r" state="O"/>
    <connection from="-E14" to="-E13" fromLane="0" toLane="0" via=":P8_7_0" tl="P8" linkIndex="7" dir="s" state="O"/>
    <connection from="-E14" to="-E4" fromLane="0" toLane="0" via=":P8_8_0" tl="P8" linkIndex="8" dir="l" state="o"/>
    <connection from="-E2" to="-E13" fromLane="0" toLane="0" via=":P8_3_0" tl="P8" linkIndex="3" dir="r" state="o"/>
    <connection from="-E2" to="-E4" fromLane="0" toLane="0" via=":P8_4_0" tl="P8" linkIndex="4" dir="s" state="o"/>
    <connection from="-E2" to="E14" fromLane="0" toLane="0" via=":P8_5_0" tl="P8" linkIndex="5" dir="l" state="o"/>
    <connection from="-E21" to="E3" fromLane="0" toLane="0" via=":P5_6_0" tl="P5" linkIndex="6" dir="r" state="O"/>
    <connection from="-E21" to="-E20" fromLane="0" toLane="0" via=":P5_7_0" tl="P5" linkIndex="7" dir="s" state="O"/>
    <connection from="-E21" to="-E1" fromLane="0" toLane="0" via=":P5_8_0" tl="P5" linkIndex="8" dir="l" state="o"/>