<?xml version="1.0" encoding="UTF-8"?>

<!-- generated on 2024-07-16 19:24:39 by Eclipse SUMO netedit Version 1.20.0
<configuration xmlns:xsi="http://www.w3.org/2001/XMLSchema-instance" xsi:noNamespaceSchemaLocation="http://sumo.dlr.de/xsd/neteditConfiguration.xsd">

    <input>
        <sumocfg-file value="C:\DATA\ROB\praca_GIT\001\01_skrzyzowanieX.sumocfg"/>
        <additional-files value=""/>
        <route-files value="C:\DATA\ROB\praca_GIT\001\01_skrzyzowanieX.rou.xml"/>
        <sumo-net-file value="C:\DATA\ROB\praca_GIT\001\01_skrzyzowanieX.net.xml"/>
    </input>

    <output>
        <output-file value="C:\DATA\ROB\praca_GIT\001\01_skrzyzowanieX.net.xml"/>
    </output>

    <processing>
        <geometry.min-radius.fix.railways value="false"/>
        <geometry.max-grade.fix value="false"/>
        <offset.disable-normalization value="true"/>
        <lefthand value="0"/>
    </processing>

    <junctions>
        <no-turnarounds value="true"/>
        <junctions.corner-detail value="5"/>
        <junctions.limit-turn-speed value="5.50"/>
        <rectangular-lane-cut value="0"/>
    </junctions>

    <pedestrian>
        <walkingareas value="0"/>
    </pedestrian>

</configuration>
-->

<net version="1.20" junctionCornerDetail="5" limitTurnSpeed="5.50" xmlns:xsi="http://www.w3.org/2001/XMLSchema-instance" xsi:noNamespaceSchemaLocation="http://sumo.dlr.de/xsd/net_file.xsd">

    <location netOffset="0.00,0.00" convBoundary="-7.07,-19.39,175.20,113.36" origBoundary="-10000000000.00,-10000000000.00,10000000000.00,10000000000.00" projParameter="!"/>

    <edge id=":J1_0" function="internal">
        <lane id=":J1_0_0" index="0" speed="6.52" length="9.06" shape="63.90,56.14 63.55,53.68 62.49,51.93 60.73,50.88 58.27,50.53"/>
    </edge>
    <edge id=":J1_1" function="internal">
        <lane id=":J1_1_0" index="0" speed="13.89" length="14.42" shape="63.90,56.14 63.86,41.72"/>
    </edge>
    <edge id=":J1_2" function="internal">
        <lane id=":J1_2_0" index="0" speed="8.00" length="14.20" shape="63.90,56.14 64.45,52.28 66.09,49.53 68.84,47.88 72.70,47.33"/>
    </edge>
    <edge id=":J1_3" function="internal">
        <lane id=":J1_3_0" index="0" speed="6.50" length="9.03" shape="72.69,50.53 70.24,50.88 68.49,51.93 67.45,53.68 67.10,56.13"/>
    </edge>
    <edge id=":J1_4" function="internal">
        <lane id=":J1_4_0" index="0" speed="13.89" length="14.42" shape="72.69,50.53 58.27,50.53"/>
    </edge>
    <edge id=":J1_5" function="internal">
        <lane id=":J1_5_0" index="0" speed="8.02" length="4.07" shape="72.69,50.53 68.84,49.98 68.69,49.89"/>
    </edge>
    <edge id=":J1_12" function="internal">
        <lane id=":J1_12_0" index="0" speed="8.02" length="10.15" shape="68.69,49.89 66.09,48.33 64.42,45.58 63.86,41.72"/>
    </edge>
    <edge id=":J1_6" function="internal">
        <lane id=":J1_6_0" index="0" speed="6.53" length="9.07" shape="67.06,41.71 67.42,44.17 68.48,45.92 70.24,46.98 72.70,47.33"/>
    </edge>
    <edge id=":J1_7" function="internal">
        <lane id=":J1_7_0" index="0" speed="13.89" length="14.43" shape="67.06,41.71 67.10,56.13"/>
    </edge>
    <edge id=":J1_8" function="internal">
        <lane id=":J1_8_0" index="0" speed="7.99" length="14.21" shape="67.06,41.71 66.52,45.57 64.88,48.32 62.13,49.98 58.27,50.53"/>
    </edge>
    <edge id=":J1_9" function="internal">
        <lane id=":J1_9_0" index="0" speed="6.50" length="9.03" shape="58.27,47.33 60.73,46.98 62.47,45.93 63.52,44.18 63.86,41.72"/>
    </edge>
    <edge id=":J1_10" function="internal">
        <lane id=":J1_10_0" index="0" speed="13.89" length="14.42" shape="58.27,47.33 72.70,47.33"/>
    </edge>
    <edge id=":J1_11" function="internal">
        <lane id=":J1_11_0" index="0" speed="8.01" length="4.07" shape="58.27,47.33 62.13,47.88 62.28,47.97"/>
    </edge>
    <edge id=":J1_13" function="internal">
        <lane id=":J1_13_0" index="0" speed="8.01" length="10.14" shape="62.28,47.97 64.89,49.53 66.54,52.28 67.10,56.13"/>
    </edge>

    <edge id="-E0" from="J1" to="J0" priority="-1">
        <lane id="-E0_0" index="0" speed="13.89" length="65.34" shape="58.27,50.53 -7.07,50.53"/>
    </edge>
    <edge id="-E1" from="J2" to="J1" priority="-1">
        <lane id="-E1_0" index="0" speed="13.89" length="57.23" shape="63.98,113.36 63.90,56.14"/>
    </edge>
    <edge id="-E2" from="J3" to="J1" priority="-1">
        <lane id="-E2_0" index="0" speed="13.89" length="102.50" shape="175.20,50.55 72.69,50.53"/>
    </edge>
    <edge id="-E3" from="J4" to="J1" priority="-1">
        <lane id="-E3_0" index="0" speed="13.89" length="61.11" shape="66.76,-19.40 67.06,41.71"/>
    </edge>
    <edge id="E0" from="J0" to="J1" priority="-1">
        <lane id="E0_0" index="0" speed="13.89" length="65.34" shape="-7.07,47.33 58.27,47.33"/>
    </edge>
    <edge id="E1" from="J1" to="J2" priority="-1">
        <lane id="E1_0" index="0" speed="13.89" length="57.23" shape="67.10,56.13 67.18,113.36"/>
    </edge>
    <edge id="E2" from="J1" to="J3" priority="-1">
        <lane id="E2_0" index="0" speed="13.89" length="102.50" shape="72.70,47.33 175.20,47.35"/>
    </edge>
    <edge id="E3" from="J1" to="J4" priority="1">
        <lane id="E3_0" index="0" speed="13.89" length="61.11" shape="63.86,41.72 63.56,-19.38"/>
    </edge>

    <junction id="J0" type="dead_end" x="-7.07" y="48.93" incLanes="-E0_0" intLanes="" shape="-7.07,48.93 -7.07,52.13 -7.07,48.93"/>
    <junction id="J1" type="priority" x="65.49" y="48.93" incLanes="-E1_0 -E2_0 -E3_0 E0_0" intLanes=":J1_0_0 :J1_1_0 :J1_2_0 :J1_3_0 :J1_4_0 :J1_12_0 :J1_6_0 :J1_7_0 :J1_8_0 :J1_9_0 :J1_10_0 :J1_13_0" shape="62.30,56.14 68.70,56.13 69.14,53.91 69.70,53.13 70.47,52.58 71.47,52.24 72.69,52.13 72.70,45.73 70.46,45.28 69.67,44.72 69.11,43.94 68.77,42.93 68.66,41.70 62.26,41.73 61.82,43.95 61.27,44.73 60.49,45.29 59.50,45.62 58.27,45.73 58.27,52.13 60.51,52.58 61.29,53.13 61.85,53.91 62.19,54.91">
        <request index="0"  response="000000010000" foes="000100010000" cont="0"/>
        <request index="1"  response="111000110000" foes="111100110000" cont="0"/>
        <request index="2"  response="110111110000" foes="110111110000" cont="0"/>
        <request index="3"  response="000000000000" foes="100010000000" cont="0"/>
        <request index="4"  response="000000000000" foes="100110000111" cont="0"/>
        <request index="5"  response="111000000000" foes="111110000110" cont="1"/>
        <request index="6"  response="010000000000" foes="010000000100" cont="0"/>
        <request index="7"  response="110000111000" foes="110000111100" cont="0"/>
        <request index="8"  response="110000110011" foes="110000110111" cont="0"/>
        <request index="9"  response="000000000000" foes="000000100010" cont="0"/>
        <request index="10" response="000000000000" foes="000111100110" cont="0"/>
        <request index="11" response="000000011000" foes="000110111110" cont="1"/>
    </junction>
    <junction id="J2" type="dead_end" x="65.58" y="113.36" incLanes="E1_0" intLanes="" shape="65.58,113.36 68.78,113.36 65.58,113.36"/>
    <junction id="J3" type="dead_end" x="175.20" y="48.95" incLanes="E2_0" intLanes="" shape="175.20,48.95 175.20,45.75 175.20,48.95"/>
    <junction id="J4" type="dead_end" x="65.16" y="-19.39" incLanes="E3_0" intLanes="" shape="65.16,-19.39 61.96,-19.37 65.16,-19.39"/>

    <junction id=":J1_12_0" type="internal" x="68.69" y="49.89" incLanes=":J1_5_0 E0_0" intLanes=":J1_1_0 :J1_2_0 :J1_7_0 :J1_8_0 :J1_9_0 :J1_10_0"/>
    <junction id=":J1_13_0" type="internal" x="62.28" y="47.97" incLanes=":J1_11_0 -E2_0" intLanes=":J1_1_0 :J1_2_0 :J1_3_0 :J1_4_0 :J1_7_0 :J1_8_0"/>

    <connection from="-E1" to="-E0" fromLane="0" toLane="0" via=":J1_0_0" dir="r" state="m"/>
    <connection from="-E1" to="E3" fromLane="0" toLane="0" via=":J1_1_0" dir="s" state="m"/>
    <connection from="-E1" to="E2" fromLane="0" toLane="0" via=":J1_2_0" dir="l" state="m"/>
    <connection from="-E2" to="E1" fromLane="0" toLane="0" via=":J1_3_0" dir="r" state="M"/>
    <connection from="-E2" to="-E0" fromLane="0" toLane="0" via=":J1_4_0" dir="s" state="M"/>
    <connection from="-E2" to="E3" fromLane="0" toLane="0" via=":J1_5_0" dir="l" state="m"/>
    <connection from="-E3" to="E2" fromLane="0" toLane="0" via=":J1_6_0" dir="r" state="m"/>
    <connection from="-E3" to="E1" fromLane="0" toLane="0" via=":J1_7_0" dir="s" state="m"/>
    <connection from="-E3" to="-E0" fromLane="0" toLane="0" via=":J1_8_0" dir="l" state="m"/>
    <connection from="E0" to="E3" fromLane="0" toLane="0" via=":J1_9_0" dir="r" state="M"/>
    <connection from="E0" to="E2" fromLane="0" toLane="0" via=":J1_10_0" dir="s" state="M"/>
    <connection from="E0" to="E1" fromLane="0" toLane="0" via=":J1_11_0" dir="l" state="m"/>

    <connection from=":J1_0" to="-E0" fromLane="0" toLane="0" dir="r" state="M"/>
    <connection from=":J1_1" to="E3" fromLane="0" toLane="0" dir="s" state="M"/>
    <connection from=":J1_2" to="E2" fromLane="0" toLane="0" dir="l" state="M"/>
    <connection from=":J1_3" to="E1" fromLane="0" toLane="0" dir="r" state="M"/>
    <connection from=":J1_4" to="-E0" fromLane="0" toLane="0" dir="s" state="M"/>
    <connection from=":J1_5" to="E3" fromLane="0" toLane="0" via=":J1_12_0" dir="l" state="m"/>
    <connection from=":J1_12" to="E3" fromLane="0" toLane="0" dir="l" state="M"/>
    <connection from=":J1_6" to="E2" fromLane="0" toLane="0" dir="r" state="M"/>
    <connection from=":J1_7" to="E1" fromLane="0" toLane="0" dir="s" state="M"/>
    <connection from=":J1_8" to="-E0" fromLane="0" toLane="0" dir="l" state="M"/>
    <connection from=":J1_9" to="E3" fromLane="0" toLane="0" dir="r" state="M"/>
    <connection from=":J1_10" to="E2" fromLane="0" toLane="0" dir="s" state="M"/>
    <connection from=":J1_11" to="E1" fromLane="0" toLane="0" via=":J1_13_0" dir="l" state="m"/>
    <connection from=":J1_13" to="E1" fromLane="0" toLane="0" dir="l" state="M"/>

</net>
