<?xml version="1.0" encoding="UTF-8"?>

<!-- generated on 2024-08-16 22:56:16 by Eclipse SUMO sumo Version 1.18.0
-->

<configuration xmlns:xsi="http://www.w3.org/2001/XMLSchema-instance" xsi:noNamespaceSchemaLocation="http://sumo.dlr.de/xsd/sumoConfiguration.xsd">

    <input>
        <net-file value="test_flow.net.xml"/>
        <route-files value="test_flow.rou.xml"/>
    </input>

</configuration>
