<?xml version="1.0" encoding="UTF-8"?>

<!-- generated on 2024-08-16 22:56:16 by Eclipse SUMO netedit Version 1.18.0
-->

<routes xmlns:xsi="http://www.w3.org/2001/XMLSchema-instance" xsi:noNamespaceSchemaLocation="http://sumo.dlr.de/xsd/routes_file.xsd">
    <!-- Vehicles, persons and containers (sorted by depart) -->
    <flow id="f_0" begin="0.00" from="E7" to="E3" end="100000.00" period="60.00"/>
    <flow id="f_1" begin="0.00" from="E6" to="E3" end="100000.00" period="40.00"/>
    <flow id="f_10" begin="0.00" from="-E4" to="E5" end="100000.00" period="20.00"/>
    <flow id="f_11" begin="0.00" from="-E4" to="E3" end="100000.00" period="20.00"/>
    <flow id="f_12" begin="0.00" from="-E4" to="-E0" end="100000.00" period="20.00"/>
    <flow id="f_13" begin="0.00" from="-E3" to="E5" end="100000.00" period="20.00"/>
    <flow id="f_14" begin="0.00" from="-E3" to="-E0" end="100000.00" period="20.00"/>
    <flow id="f_15" begin="0.00" from="-E3" to="E4" end="100000.00" period="20.00"/>
    <flow id="f_16" begin="0.00" from="E0" to="E3" end="100000.00" period="10.00"/>
    <flow id="f_2" begin="0.00" from="E6" to="E4" end="100000.00" period="40.00"/>
    <flow id="f_3" begin="0.00" from="E6" to="E5" end="100000.00" period="40.00"/>
    <flow id="f_4" begin="0.00" from="E6" to="-E0" end="100000.00" period="40.00"/>
    <flow id="f_5" begin="0.00" from="E7" to="E4" end="100000.00" period="60.00"/>
    <flow id="f_6" begin="0.00" from="E7" to="E5" end="100000.00" period="60.00"/>
    <flow id="f_7" begin="0.00" from="-E5" to="-E0" end="100000.00" period="30.00"/>
    <flow id="f_8" begin="0.00" from="-E5" to="E4" end="100000.00" period="30.00"/>
    <flow id="f_9" begin="0.00" from="-E5" to="E3" end="100000.00" period="30.00"/>
</routes>
