<?xml version="1.0" encoding="UTF-8"?>

<!-- generated on 2025-02-10 10:38:44 by Eclipse SUMO sumo Version 1.21.0
-->

<sumoConfiguration xmlns:xsi="http://www.w3.org/2001/XMLSchema-instance" xsi:noNamespaceSchemaLocation="http://sumo.dlr.de/xsd/sumoConfiguration.xsd">

    <input>
        <net-file value="1x1.net.xml"/>
        <route-files value="1x1.rou.xml"/>
        <additional-files value="1x1.add.xml"/>
    </input>

</sumoConfiguration>
