<?xml version="1.0" encoding="UTF-8"?>

<!-- generated on 2024-07-16 23:02:37 by Eclipse SUMO netedit Version 1.18.0
-->

<additional xmlns:xsi="http://www.w3.org/2001/XMLSchema-instance" xsi:noNamespaceSchemaLocation="http://sumo.dlr.de/xsd/additional_file.xsd">
    <!-- TAZs -->
    <taz id="taz_0" shape="26.57,62.03 25.91,62.03 25.70,40.58 70.56,40.36 70.34,60.94 26.13,61.81 26.57,62.03" color="blue">
        <tazSource id="-E9" weight="1.00"/>
        <tazSink id="-E9" weight="1.00"/>
    </taz>
</additional>
